<?xml version="1.0" encoding="UTF-8"?>

<!-- generated on Fri Mar 29 10:28:10 2019 by Eclipse SUMO netconvert Version 1.1.0
<configuration xmlns:xsi="http://www.w3.org/2001/XMLSchema-instance" xsi:noNamespaceSchemaLocation="http://sumo.dlr.de/xsd/netconvertConfiguration.xsd">

    <input>
        <opendrive-files value="smart_v42.xodr"/>
    </input>

    <output>
        <output-file value="smart_v42.net.xml"/>
    </output>

    <tls_building>
        <tls.left-green.time value="0"/>
    </tls_building>

    <junctions>
        <rectangular-lane-cut value="true"/>
    </junctions>

</configuration>
-->

<net version="1.1" junctionCornerDetail="5" rectangularLaneCut="true" limitTurnSpeed="5.50" xmlns:xsi="http://www.w3.org/2001/XMLSchema-instance" xsi:noNamespaceSchemaLocation="http://sumo.dlr.de/xsd/net_file.xsd">

    <location netOffset="-63.47,-15.90" convBoundary="0.00,0.00,263.81,502.18" origBoundary="63.47,15.90,327.29,518.08" projParameter="!"/>

    <type id="bidirectional" priority="1" speed="1.39" disallow="tram rail_urban rail rail_electric pedestrian ship" width="3.65"/>
    <type id="border" priority="0" speed="1.39" disallow="all" discard="1" width="0.10"/>
    <type id="driving" priority="1" speed="13.89" disallow="tram rail_urban rail rail_electric pedestrian ship" width="3.65"/>
    <type id="entry" priority="1" speed="22.22" disallow="tram rail_urban rail rail_electric pedestrian ship" width="3.65"/>
    <type id="exit" priority="1" speed="22.22" disallow="tram rail_urban rail rail_electric pedestrian ship" width="3.65"/>
    <type id="median" priority="0" speed="1.39" disallow="all" discard="1" width="0.10"/>
    <type id="mwyEntry" priority="1" speed="22.22" allow="private emergency authority army vip passenger hov taxi bus coach delivery truck trailer motorcycle evehicle custom1 custom2" width="3.65"/>
    <type id="mwyExit" priority="1" speed="22.22" allow="private emergency authority army vip passenger hov taxi bus coach delivery truck trailer motorcycle evehicle custom1 custom2" width="3.65"/>
    <type id="none" priority="0" speed="1.39" disallow="all" discard="1" width="1.00"/>
    <type id="offRamp" priority="1" speed="22.22" allow="private emergency authority army vip passenger hov taxi bus coach delivery truck trailer motorcycle evehicle custom1 custom2" width="3.65"/>
    <type id="onRamp" priority="1" speed="22.22" allow="private emergency authority army vip passenger hov taxi bus coach delivery truck trailer motorcycle evehicle custom1 custom2" width="3.65"/>
    <type id="parking" priority="1" speed="1.39" disallow="tram rail_urban rail rail_electric pedestrian ship" width="2.50"/>
    <type id="rail" priority="3" speed="33.33" allow="rail_urban rail rail_electric" width="3.65"/>
    <type id="restricted" priority="0" speed="13.89" disallow="all" width="3.65"/>
    <type id="roadWorks" priority="0" speed="1.39" allow="authority" width="3.65"/>
    <type id="shoulder" priority="0" speed="1.39" disallow="all" discard="1" width="1.00"/>
    <type id="special1" priority="1" speed="22.22" allow="custom1" discard="1" width="3.65"/>
    <type id="special2" priority="1" speed="22.22" allow="custom2" discard="1" width="3.65"/>
    <type id="special3" priority="1" speed="22.22" allow="custom1 custom2" discard="1" width="3.65"/>
    <type id="stop" priority="1" speed="13.89" disallow="tram rail_urban rail rail_electric pedestrian ship" width="3.65"/>
    <type id="tram" priority="2" speed="13.89" allow="tram" width="3.65"/>

    <edge id=":1_0" function="internal">
        <lane id=":1_0_0" index="0" disallow="tram rail_urban rail rail_electric pedestrian ship" speed="13.89" length="11.52" width="4.00" shape="157.96,30.51 158.79,19.01"/>
        <lane id=":1_0_1" index="1" disallow="tram rail_urban rail rail_electric pedestrian ship" speed="13.89" length="11.52" width="3.50" shape="162.31,30.51 162.54,19.00"/>
    </edge>
    <edge id=":1_2" function="internal">
        <lane id=":1_2_0" index="0" disallow="tram rail_urban rail rail_electric pedestrian ship" speed="13.89" length="11.51" width="3.80" shape="169.79,19.00 170.06,30.51"/>
        <lane id=":1_2_1" index="1" disallow="tram rail_urban rail rail_electric pedestrian ship" speed="13.89" length="11.51" width="3.85" shape="166.04,19.00 166.24,30.51"/>
    </edge>
    <edge id=":1_4" function="internal">
        <lane id=":1_4_0" index="0" disallow="tram rail_urban rail rail_electric pedestrian ship" speed="6.98" length="10.45" width="4.00" shape="151.61,24.76 154.76,24.40 157.00,23.32 158.34,21.52 158.79,19.01"/>
    </edge>
    <edge id=":1.begin_0" function="internal">
        <lane id=":1.begin_0_0" index="0" disallow="tram rail_urban rail rail_electric pedestrian ship" speed="3.82" length="5.11" width="3.50" shape="162.52,0.00 163.39,-1.31 164.27,-1.75 165.14,-1.31 166.02,-0.00"/>
    </edge>
    <edge id=":10_0" function="internal">
        <lane id=":10_0_0" index="0" disallow="tram rail_urban rail rail_electric pedestrian ship" speed="1.39" length="18.89" width="2.40" shape="22.59,497.14 17.64,494.37 14.99,491.36 13.26,487.42 11.07,481.88"/>
        <lane id=":10_0_1" index="1" disallow="tram rail_urban rail rail_electric pedestrian ship" speed="13.89" length="18.89" width="3.25" shape="23.72,494.55 19.33,492.05 17.04,489.30 15.58,485.72 13.65,480.74"/>
    </edge>
    <edge id=":10_2" function="internal">
        <lane id=":10_2_0" index="0" disallow="tram rail_urban rail rail_electric pedestrian ship" speed="7.77" length="9.28" width="2.75" shape="23.72,494.55 19.60,491.87 18.39,488.67 18.79,487.81"/>
    </edge>
    <edge id=":10_7" function="internal">
        <lane id=":10_7_0" index="0" disallow="tram rail_urban rail rail_electric pedestrian ship" speed="7.77" length="9.36" width="2.75" shape="18.79,487.81 20.09,484.97 24.69,480.76"/>
    </edge>
    <edge id=":10_3" function="internal">
        <lane id=":10_3_0" index="0" disallow="tram rail_urban rail rail_electric pedestrian ship" speed="6.06" length="10.96" width="4.25" shape="26.32,482.98 23.50,485.51 22.38,487.72 22.95,489.58 25.22,491.11"/>
    </edge>
    <edge id=":10_4" function="internal">
        <lane id=":10_4_0" index="0" disallow="tram rail_urban rail rail_electric pedestrian ship" speed="7.72" length="15.51" width="3.25" shape="26.32,482.98 22.22,485.27 18.74,485.67 15.89,484.16 13.65,480.74"/>
    </edge>
    <edge id=":10_5" function="internal">
        <lane id=":10_5_0" index="0" disallow="tram rail_urban rail rail_electric pedestrian ship" speed="6.29" length="9.36" width="2.75" shape="17.09,479.23 18.46,481.34 20.18,482.30 22.26,482.11 24.69,480.76"/>
    </edge>
    <edge id=":10_6" function="internal">
        <lane id=":10_6_0" index="0" disallow="tram rail_urban rail rail_electric pedestrian ship" speed="13.21" length="14.75" width="4.25" shape="17.09,479.23 18.57,482.73 20.20,486.14 22.30,489.06 25.22,491.11"/>
    </edge>
    <edge id=":1015.end_0" function="internal">
        <lane id=":1015.end_0_0" index="0" disallow="tram rail_urban rail rail_electric pedestrian ship" speed="3.38" length="4.02" width="2.75" shape="134.67,460.54 135.36,459.51 136.05,459.17 136.73,459.51 137.42,460.54"/>
    </edge>
    <edge id=":1017.end_0" function="internal">
        <lane id=":1017.end_0_0" index="0" disallow="tram rail_urban rail rail_electric pedestrian ship" speed="3.38" length="4.02" width="2.75" shape="146.22,450.32 145.18,449.63 144.84,448.94 145.18,448.26 146.21,447.57"/>
    </edge>
    <edge id=":11_0" function="internal">
        <lane id=":11_0_0" index="0" disallow="tram rail_urban rail rail_electric pedestrian ship" speed="13.89" length="13.73" width="3.25" shape="142.79,502.83 138.50,502.48 135.35,501.71 132.55,500.93 129.29,500.58"/>
    </edge>
    <edge id=":11_1" function="internal">
        <lane id=":11_1_0" index="0" disallow="tram rail_urban rail rail_electric pedestrian ship" speed="8.47" length="8.21" width="2.75" shape="142.79,502.83 139.23,502.14 136.70,500.05 136.17,498.86"/>
    </edge>
    <edge id=":11_6" function="internal">
        <lane id=":11_6_0" index="0" disallow="tram rail_urban rail rail_electric pedestrian ship" speed="8.47" length="7.39" width="2.75" shape="136.17,498.86 135.17,496.57 134.67,491.70"/>
    </edge>
    <edge id=":11_2" function="internal">
        <lane id=":11_2_0" index="0" disallow="tram rail_urban rail rail_electric pedestrian ship" speed="6.42" length="8.91" width="3.00" shape="137.42,491.70 137.75,494.19 138.76,495.96 140.44,497.03 142.79,497.38"/>
    </edge>
    <edge id=":11_3" function="internal">
        <lane id=":11_3_0" index="0" disallow="tram rail_urban rail rail_electric pedestrian ship" speed="7.84" length="13.71" width="3.25" shape="137.42,491.70 136.91,495.59 135.38,498.36 132.84,500.02 129.29,500.58"/>
    </edge>
    <edge id=":11_4" function="internal">
        <lane id=":11_4_0" index="0" disallow="tram rail_urban rail rail_electric pedestrian ship" speed="6.46" length="8.87" width="2.75" shape="129.29,497.33 131.64,496.98 133.32,495.92 134.33,494.16 134.67,491.70"/>
    </edge>
    <edge id=":11_5" function="internal">
        <lane id=":11_5_0" index="0" disallow="tram rail_urban rail rail_electric pedestrian ship" speed="13.89" length="13.50" width="3.00" shape="129.29,497.33 142.79,497.38"/>
    </edge>
    <edge id=":12_0" function="internal">
        <lane id=":12_0_0" index="0" disallow="tram rail_urban rail rail_electric pedestrian ship" speed="13.89" length="17.14" width="4.50" shape="173.86,504.20 168.79,504.18 165.34,503.69 161.88,503.11 156.81,502.84"/>
    </edge>
    <edge id=":12_1" function="internal">
        <lane id=":12_1_0" index="0" disallow="tram rail_urban rail rail_electric pedestrian ship" speed="8.45" length="8.17" width="3.50" shape="173.69,501.08 168.82,500.73 165.85,499.32"/>
    </edge>
    <edge id=":12_6" function="internal">
        <lane id=":12_6_0" index="0" disallow="tram rail_urban rail rail_electric pedestrian ship" speed="8.45" length="8.48" width="3.50" shape="165.85,499.32 165.34,499.08 163.26,496.13 162.56,491.89"/>
    </edge>
    <edge id=":12_2" function="internal">
        <lane id=":12_2_0" index="0" disallow="tram rail_urban rail rail_electric pedestrian ship" speed="7.04" length="11.09" width="3.25" shape="166.06,491.89 166.53,494.69 167.93,496.64 170.26,497.73 173.52,497.96"/>
    </edge>
    <edge id=":12_3" function="internal">
        <lane id=":12_3_0" index="0" disallow="tram rail_urban rail rail_electric pedestrian ship" speed="8.56" length="16.31" width="4.50" shape="166.06,491.89 165.48,496.68 163.75,500.10 160.86,502.15 156.81,502.84"/>
    </edge>
    <edge id=":12_4" function="internal">
        <lane id=":12_4_0" index="0" disallow="tram rail_urban rail rail_electric pedestrian ship" speed="6.50" length="9.07" width="3.50" shape="156.81,497.39 159.33,497.04 161.12,496.01 162.20,494.29 162.56,491.89"/>
    </edge>
    <edge id=":12_5" function="internal">
        <lane id=":12_5_0" index="0" disallow="tram rail_urban rail rail_electric pedestrian ship" speed="13.89" length="16.72" width="3.25" shape="156.81,497.39 173.52,497.96"/>
    </edge>
    <edge id=":13_0" function="internal">
        <lane id=":13_0_0" index="0" disallow="tram rail_urban rail rail_electric pedestrian ship" speed="13.89" length="14.50" width="3.25" shape="8.92,406.07 8.91,391.57"/>
    </edge>
    <edge id=":13_1" function="internal">
        <lane id=":13_1_0" index="0" disallow="tram rail_urban rail rail_electric pedestrian ship" speed="8.25" length="5.42" width="3.25" shape="8.92,406.07 9.54,402.19 10.36,400.95"/>
    </edge>
    <edge id=":13_6" function="internal">
        <lane id=":13_6_0" index="0" disallow="tram rail_urban rail rail_electric pedestrian ship" speed="8.25" length="9.71" width="3.25" shape="10.36,400.95 11.39,399.41 14.48,397.75 18.80,397.19"/>
    </edge>
    <edge id=":13_2" function="internal">
        <lane id=":13_2_0" index="0" disallow="tram rail_urban rail rail_electric pedestrian ship" speed="6.66" length="9.48" width="4.25" shape="18.80,400.44 16.12,400.80 14.20,401.85 13.05,403.61 12.67,406.07"/>
    </edge>
    <edge id=":13_3" function="internal">
        <lane id=":13_3_0" index="0" disallow="tram rail_urban rail rail_electric pedestrian ship" speed="8.25" length="15.14" width="3.25" shape="18.80,400.44 14.47,399.89 11.38,398.23 9.53,395.45 8.91,391.57"/>
    </edge>
    <edge id=":13_4" function="internal">
        <lane id=":13_4_0" index="0" disallow="tram rail_urban rail rail_electric pedestrian ship" speed="6.79" length="9.90" width="3.25" shape="12.16,391.57 12.57,394.03 13.82,395.79 15.89,396.84 18.80,397.19"/>
    </edge>
    <edge id=":13_5" function="internal">
        <lane id=":13_5_0" index="0" disallow="tram rail_urban rail rail_electric pedestrian ship" speed="13.89" length="14.51" width="4.25" shape="12.16,391.57 12.67,406.07"/>
    </edge>
    <edge id=":14_0" function="internal">
        <lane id=":14_0_0" index="0" disallow="tram rail_urban rail rail_electric pedestrian ship" speed="13.89" length="22.31" width="3.25" shape="246.85,470.84 244.52,474.42 241.70,478.78 237.82,483.31 232.27,487.38"/>
    </edge>
    <edge id=":14_1" function="internal">
        <lane id=":14_1_0" index="0" disallow="tram rail_urban rail rail_electric pedestrian ship" speed="10.21" length="6.11" width="3.25" shape="246.85,470.84 243.86,473.53 241.89,474.23"/>
    </edge>
    <edge id=":14_2" function="internal">
        <lane id=":14_2_0" index="0" disallow="tram rail_urban rail rail_electric pedestrian ship" speed="7.08" length="5.44" width="4.50" shape="246.85,470.84 243.87,473.56 242.47,473.59"/>
    </edge>
    <edge id=":14_9" function="internal">
        <lane id=":14_9_0" index="0" disallow="tram rail_urban rail rail_electric pedestrian ship" speed="10.21" length="12.00" width="3.25" shape="241.89,474.23 240.09,474.86 235.53,474.83 230.18,473.45"/>
    </edge>
    <edge id=":14_10" function="internal">
        <lane id=":14_10_0" index="0" disallow="tram rail_urban rail rail_electric pedestrian ship" speed="7.08" length="10.57" width="4.50" shape="242.47,473.59 241.16,473.62 238.74,471.01 236.58,465.73"/>
    </edge>
    <edge id=":14_3" function="internal">
        <lane id=":14_3_0" index="0" disallow="tram rail_urban rail rail_electric pedestrian ship" speed="5.79" length="10.28" width="4.50" shape="231.28,470.39 234.44,471.12 236.38,470.58 237.09,468.79 236.58,465.73"/>
    </edge>
    <edge id=":14_4" function="internal">
        <lane id=":14_4_0" index="0" disallow="tram rail_urban rail rail_electric pedestrian ship" speed="9.03" length="14.00" width="3.25" shape="231.28,470.39 235.56,471.54 239.16,471.67 242.06,470.78 244.28,468.86"/>
    </edge>
    <edge id=":14_5" function="internal">
        <lane id=":14_5_0" index="0" disallow="tram rail_urban rail rail_electric pedestrian ship" speed="8.13" length="22.77" width="3.25" shape="231.28,470.39 236.64,473.79 238.59,478.34 237.14,483.16 232.27,487.38"/>
    </edge>
    <edge id=":14_6" function="internal">
        <lane id=":14_6_0" index="0" disallow="tram rail_urban rail rail_electric pedestrian ship" speed="6.66" length="14.70" width="3.25" shape="229.88,483.04 233.89,480.24 235.27,477.71 234.04,475.44 230.18,473.45"/>
    </edge>
    <edge id=":14_7" function="internal">
        <lane id=":14_7_0" index="0" disallow="tram rail_urban rail rail_electric pedestrian ship" speed="10.30" length="20.33" width="4.50" shape="229.88,483.04 234.14,479.84 236.68,475.89 237.50,471.18 236.58,465.73"/>
    </edge>
    <edge id=":14_8" function="internal">
        <lane id=":14_8_0" index="0" disallow="tram rail_urban rail rail_electric pedestrian ship" speed="13.89" length="20.30" width="3.25" shape="229.88,483.04 233.55,480.36 237.58,476.53 241.36,472.41 244.28,468.86"/>
    </edge>
    <edge id=":15_0" function="internal">
        <lane id=":15_0_0" index="0" disallow="tram rail_urban rail rail_electric pedestrian ship" speed="6.78" length="9.82" width="2.75" shape="162.56,456.70 162.20,453.89 161.12,451.88 159.32,450.68 156.80,450.29"/>
    </edge>
    <edge id=":15_1" function="internal">
        <lane id=":15_1_0" index="0" disallow="tram rail_urban rail rail_electric pedestrian ship" speed="13.89" length="14.91" width="3.50" shape="162.56,456.70 162.56,441.79"/>
    </edge>
    <edge id=":15_2" function="internal">
        <lane id=":15_2_0" index="0" disallow="tram rail_urban rail rail_electric pedestrian ship" speed="7.67" length="6.49" width="3.25" shape="162.56,456.70 163.22,452.09 164.31,450.61"/>
    </edge>
    <edge id=":15_12" function="internal">
        <lane id=":15_12_0" index="0" disallow="tram rail_urban rail rail_electric pedestrian ship" speed="7.67" length="9.77" width="3.25" shape="164.31,450.61 165.22,449.35 168.56,448.48 173.22,449.47"/>
    </edge>
    <edge id=":15_3" function="internal">
        <lane id=":15_3_0" index="0" disallow="tram rail_urban rail rail_electric pedestrian ship" speed="5.94" length="9.29" width="3.50" shape="172.12,452.53 169.47,451.97 167.57,452.48 166.44,454.05 166.06,456.70"/>
    </edge>
    <edge id=":15_4" function="internal">
        <lane id=":15_4_0" index="0" disallow="tram rail_urban rail rail_electric pedestrian ship" speed="13.89" length="15.55" width="2.75" shape="172.12,452.53 168.45,451.46 164.57,450.77 160.64,450.39 156.80,450.29"/>
    </edge>
    <edge id=":15_5" function="internal">
        <lane id=":15_5_0" index="0" disallow="tram rail_urban rail rail_electric pedestrian ship" speed="9.60" length="15.36" width="3.50" shape="172.12,452.53 167.94,450.56 164.95,448.12 163.16,445.20 162.56,441.79"/>
    </edge>
    <edge id=":15_6" function="internal">
        <lane id=":15_6_0" index="0" disallow="tram rail_urban rail rail_electric pedestrian ship" speed="8.30" length="11.20" width="3.25" shape="166.06,441.79 166.51,444.18 167.85,446.26 170.09,448.02 173.22,449.47"/>
    </edge>
    <edge id=":15_7" function="internal">
        <lane id=":15_7_0" index="0" disallow="tram rail_urban rail rail_electric pedestrian ship" speed="13.89" length="14.91" width="3.50" shape="166.06,441.79 166.06,456.70"/>
    </edge>
    <edge id=":15_8" function="internal">
        <lane id=":15_8_0" index="0" disallow="tram rail_urban rail rail_electric pedestrian ship" speed="8.07" length="5.90" width="2.75" shape="166.06,441.79 165.48,445.50 164.31,447.29"/>
    </edge>
    <edge id=":15_13" function="internal">
        <lane id=":15_13_0" index="0" disallow="tram rail_urban rail rail_electric pedestrian ship" speed="8.07" length="8.42" width="2.75" shape="164.31,447.29 163.75,448.15 160.85,449.75 156.80,450.29"/>
    </edge>
    <edge id=":15_9" function="internal">
        <lane id=":15_9_0" index="0" disallow="tram rail_urban rail rail_electric pedestrian ship" speed="6.54" length="9.28" width="3.50" shape="156.79,447.54 159.32,447.17 161.12,446.09 162.20,444.30 162.56,441.79"/>
    </edge>
    <edge id=":15_10" function="internal">
        <lane id=":15_10_0" index="0" disallow="tram rail_urban rail rail_electric pedestrian ship" speed="13.89" length="16.61" width="3.25" shape="156.79,447.54 160.81,447.60 165.12,447.86 169.37,448.45 173.22,449.47"/>
    </edge>
    <edge id=":15_11" function="internal">
        <lane id=":15_11_0" index="0" disallow="tram rail_urban rail rail_electric pedestrian ship" speed="8.13" length="14.86" width="3.50" shape="156.79,447.54 160.85,448.10 163.74,449.82 165.48,452.68 166.06,456.70"/>
    </edge>
    <edge id=":16_0" function="internal">
        <lane id=":16_0_0" index="0" disallow="tram rail_urban rail rail_electric pedestrian ship" speed="8.11" length="6.05" width="3.75" shape="62.28,417.43 62.10,416.18 61.57,414.90 60.68,413.60 59.43,412.27"/>
    </edge>
    <edge id=":16_1" function="internal">
        <lane id=":16_1_0" index="0" disallow="tram rail_urban rail rail_electric pedestrian ship" speed="7.94" length="5.95" width="4.00" shape="69.02,412.32 67.82,413.59 66.97,414.86 66.45,416.14 66.28,417.43"/>
    </edge>
    <edge id=":16_2" function="internal">
        <lane id=":16_2_0" index="0" disallow="tram rail_urban rail rail_electric pedestrian ship" speed="7.28" length="6.26" width="3.75" shape="69.02,412.32 66.61,413.99 64.21,414.53 63.36,414.33"/>
    </edge>
    <edge id=":16_3" function="internal">
        <lane id=":16_3_0" index="0" disallow="tram rail_urban rail rail_electric pedestrian ship" speed="5.35" length="5.41" width="3.25" shape="66.65,409.73 65.44,410.56 64.23,410.83 63.03,410.55 61.83,409.70"/>
    </edge>
    <edge id=":16_4" function="internal">
        <lane id=":16_4_0" index="0" disallow="tram rail_urban rail rail_electric pedestrian ship" speed="7.28" length="4.51" width="3.75" shape="63.36,414.33 61.82,413.96 59.43,412.27"/>
    </edge>
    <edge id=":17_0" function="internal">
        <lane id=":17_0_0" index="0" disallow="tram rail_urban rail rail_electric pedestrian ship" speed="6.42" length="8.90" width="3.25" shape="28.88,406.10 28.54,403.63 27.53,401.86 25.85,400.80 23.50,400.44"/>
    </edge>
    <edge id=":17_1" function="internal">
        <lane id=":17_1_0" index="0" disallow="tram rail_urban rail rail_electric pedestrian ship" speed="13.89" length="14.53" width="2.75" shape="28.88,406.10 28.91,391.57"/>
    </edge>
    <edge id=":17_2" function="internal">
        <lane id=":17_2_0" index="0" disallow="tram rail_urban rail rail_electric pedestrian ship" speed="7.84" length="13.75" width="3.25" shape="28.88,406.10 29.39,402.22 30.92,399.44 33.47,397.78 37.04,397.22"/>
    </edge>
    <edge id=":17_3" function="internal">
        <lane id=":17_3_0" index="0" disallow="tram rail_urban rail rail_electric pedestrian ship" speed="6.47" length="8.90" width="2.75" shape="37.04,400.47 34.67,400.82 32.98,401.88 31.97,403.64 31.63,406.10"/>
    </edge>
    <edge id=":17_4" function="internal">
        <lane id=":17_4_0" index="0" disallow="tram rail_urban rail rail_electric pedestrian ship" speed="13.89" length="13.54" width="3.25" shape="37.04,400.47 23.50,400.44"/>
    </edge>
    <edge id=":17_5" function="internal">
        <lane id=":17_5_0" index="0" disallow="tram rail_urban rail rail_electric pedestrian ship" speed="7.89" length="5.56" width="2.75" shape="37.04,400.47 33.48,399.92 31.84,398.84"/>
    </edge>
    <edge id=":17_12" function="internal">
        <lane id=":17_12_0" index="0" disallow="tram rail_urban rail rail_electric pedestrian ship" speed="7.89" length="8.17" width="2.75" shape="31.84,398.84 30.95,398.25 29.42,395.46 28.91,391.57"/>
    </edge>
    <edge id=":17_6" function="internal">
        <lane id=":17_6_0" index="0" disallow="tram rail_urban rail rail_electric pedestrian ship" speed="6.42" length="8.89" width="3.25" shape="31.66,391.57 32.00,394.04 33.01,395.81 34.69,396.87 37.04,397.22"/>
    </edge>
    <edge id=":17_7" function="internal">
        <lane id=":17_7_0" index="0" disallow="tram rail_urban rail rail_electric pedestrian ship" speed="13.89" length="14.53" width="2.75" shape="31.66,391.57 31.63,406.10"/>
    </edge>
    <edge id=":17_8" function="internal">
        <lane id=":17_8_0" index="0" disallow="tram rail_urban rail rail_electric pedestrian ship" speed="7.84" length="13.74" width="3.25" shape="31.66,391.57 31.15,395.45 29.62,398.23 27.07,399.89 23.50,400.44"/>
    </edge>
    <edge id=":17_9" function="internal">
        <lane id=":17_9_0" index="0" disallow="tram rail_urban rail rail_electric pedestrian ship" speed="6.47" length="8.90" width="2.75" shape="23.50,397.19 25.87,396.84 27.56,395.79 28.58,394.03 28.91,391.57"/>
    </edge>
    <edge id=":17_10" function="internal">
        <lane id=":17_10_0" index="0" disallow="tram rail_urban rail rail_electric pedestrian ship" speed="13.89" length="13.54" width="3.25" shape="23.50,397.19 37.04,397.22"/>
    </edge>
    <edge id=":17_11" function="internal">
        <lane id=":17_11_0" index="0" disallow="tram rail_urban rail rail_electric pedestrian ship" speed="7.89" length="5.56" width="2.75" shape="23.50,397.19 27.06,397.75 28.70,398.83"/>
    </edge>
    <edge id=":17_13" function="internal">
        <lane id=":17_13_0" index="0" disallow="tram rail_urban rail rail_electric pedestrian ship" speed="7.89" length="8.18" width="2.75" shape="28.70,398.83 29.59,399.42 31.12,402.20 31.63,406.10"/>
    </edge>
    <edge id=":18_0" function="internal">
        <lane id=":18_0_0" index="0" disallow="tram rail_urban rail rail_electric pedestrian ship" speed="8.21" length="14.89" width="3.50" shape="162.55,412.84 161.96,408.90 160.19,406.09 157.23,404.40 153.09,403.84"/>
    </edge>
    <edge id=":18_1" function="internal">
        <lane id=":18_1_0" index="0" disallow="tram rail_urban rail rail_electric pedestrian ship" speed="13.89" length="24.76" width="3.50" shape="162.55,412.84 162.34,388.09"/>
    </edge>
    <edge id=":18_2" function="internal">
        <lane id=":18_2_0" index="0" disallow="tram rail_urban rail rail_electric pedestrian ship" speed="10.07" length="23.01" width="3.25" shape="162.55,412.84 163.35,406.00 165.77,401.12 169.78,398.19 175.41,397.21"/>
    </edge>
    <edge id=":18_3" function="internal">
        <lane id=":18_3_0" index="0" disallow="tram rail_urban rail rail_electric pedestrian ship" speed="7.52" length="12.32" width="3.50" shape="175.41,407.09 171.32,407.45 168.39,408.53 166.64,410.32 166.05,412.84"/>
    </edge>
    <edge id=":18_4" function="internal">
        <lane id=":18_4_0" index="0" disallow="tram rail_urban rail rail_electric pedestrian ship" speed="13.89" length="22.32" width="3.50" shape="175.41,403.71 153.09,403.84"/>
        <lane id=":18_4_1" index="1" disallow="tram rail_urban rail rail_electric pedestrian ship" speed="13.89" length="22.32" width="3.25" shape="175.41,400.46 153.09,400.46"/>
    </edge>
    <edge id=":18_6" function="internal">
        <lane id=":18_6_0" index="0" disallow="tram rail_urban rail rail_electric pedestrian ship" speed="9.52" length="20.52" width="3.50" shape="175.41,400.46 169.69,399.69 165.61,397.37 163.16,393.50 162.34,388.09"/>
    </edge>
    <edge id=":18_7" function="internal">
        <lane id=":18_7_0" index="0" disallow="tram rail_urban rail rail_electric pedestrian ship" speed="6.62" length="9.27" width="3.50" shape="169.66,388.09 170.02,390.60 171.10,392.40 172.90,393.48 175.41,393.84"/>
    </edge>
    <edge id=":18_8" function="internal">
        <lane id=":18_8_0" index="0" disallow="tram rail_urban rail rail_electric pedestrian ship" speed="13.89" length="25.06" width="3.50" shape="169.66,388.09 169.10,396.53 167.86,403.28 166.62,408.62 166.05,412.84"/>
    </edge>
    <edge id=":18_9" function="internal">
        <lane id=":18_9_0" index="0" disallow="tram rail_urban rail rail_electric pedestrian ship" speed="9.54" length="5.58" width="3.25" shape="166.16,388.09 165.34,393.50 165.29,393.59"/>
    </edge>
    <edge id=":18_14" function="internal">
        <lane id=":18_14_0" index="0" disallow="tram rail_urban rail rail_electric pedestrian ship" speed="9.54" length="14.94" width="3.25" shape="165.29,393.59 162.89,397.37 158.81,399.69 153.09,400.46"/>
    </edge>
    <edge id=":18_10" function="internal">
        <lane id=":18_10_0" index="0" disallow="tram rail_urban rail rail_electric pedestrian ship" speed="6.62" length="9.28" width="3.50" shape="153.09,393.84 155.61,393.48 157.40,392.40 158.48,390.60 158.84,388.08"/>
    </edge>
    <edge id=":18_11" function="internal">
        <lane id=":18_11_0" index="0" disallow="tram rail_urban rail rail_electric pedestrian ship" speed="13.89" length="22.32" width="3.50" shape="153.09,393.84 175.41,393.84"/>
        <lane id=":18_11_1" index="1" disallow="tram rail_urban rail rail_electric pedestrian ship" speed="13.89" length="22.32" width="3.25" shape="153.09,397.21 175.41,397.21"/>
    </edge>
    <edge id=":18_13" function="internal">
        <lane id=":18_13_0" index="0" disallow="tram rail_urban rail rail_electric pedestrian ship" speed="10.07" length="23.09" width="3.50" shape="153.09,397.21 158.76,398.19 162.81,401.12 165.24,406.00 166.05,412.84"/>
    </edge>
    <edge id=":1871.3.30_0" function="internal">
        <lane id=":1871.3.30_0_0" index="0" disallow="tram rail_urban rail rail_electric pedestrian ship" speed="13.89" length="7.64" width="3.25" shape="53.29,500.58 45.66,500.43"/>
    </edge>
    <edge id=":1871.3.30_1" function="internal">
        <lane id=":1871.3.30_1_0" index="0" disallow="tram rail_urban rail rail_electric pedestrian ship" speed="13.89" length="7.32" width="4.25" shape="45.90,496.69 53.22,496.83"/>
    </edge>
    <edge id=":19_0" function="internal">
        <lane id=":19_0_0" index="0" disallow="tram rail_urban rail rail_electric pedestrian ship" speed="13.89" length="12.52" width="4.00" shape="155.36,355.50 154.50,343.00"/>
        <lane id=":19_0_1" index="1" disallow="tram rail_urban rail rail_electric pedestrian ship" speed="13.89" length="12.52" width="3.50" shape="158.86,355.50 158.25,343.00"/>
        <lane id=":19_0_2" index="2" disallow="tram rail_urban rail rail_electric pedestrian ship" speed="13.89" length="12.52" width="3.50" shape="162.36,355.50 161.75,343.00"/>
    </edge>
    <edge id=":19_3" function="internal">
        <lane id=":19_3_0" index="0" allow="emergency authority" speed="13.89" length="12.60" width="0.00" shape="177.50,343.00 177.10,346.75 176.21,349.25 175.33,351.76 174.93,355.51"/>
        <lane id=":19_3_1" index="1" disallow="tram rail_urban rail rail_electric pedestrian ship" speed="13.89" length="12.60" width="3.50" shape="173.75,343.00 173.18,355.51"/>
        <lane id=":19_3_2" index="2" disallow="tram rail_urban rail rail_electric pedestrian ship" speed="13.89" length="12.60" width="3.50" shape="170.25,343.00 169.68,355.50"/>
        <lane id=":19_3_3" index="3" disallow="tram rail_urban rail rail_electric pedestrian ship" speed="13.89" length="12.60" width="3.50" shape="166.75,343.00 166.18,355.50"/>
    </edge>