<?xml version="1.0" encoding="UTF-8"?>

<!-- generated on 6/4/2019 10:38:41 AM by Netedit Version 0.32.0
<?xml version="1.0" encoding="UTF-8"?>

<configuration xmlns:xsi="http://www.w3.org/2001/XMLSchema-instance" xsi:noNamespaceSchemaLocation="http://sumo.dlr.de/xsd/netconvertConfiguration.xsd">

    <input>
        <sumo-net-file value="C:\FIKP\Sumo\ZalaZone2\Z4.net.xml"/>
    </input>

    <output>
        <output-file value="C:\FIKP\Sumo\ZalaZone2\Z4.net.xml"/>
    </output>

    <processing>
        <no-turnarounds value="true"/>
        <offset.disable-normalization value="true"/>
        <lefthand value="false"/>
        <junctions.corner-detail value="0"/>
        <rectangular-lane-cut value="false"/>
        <walkingareas value="false"/>
    </processing>

</configuration>
-->

<net version="0.27" xmlns:xsi="http://www.w3.org/2001/XMLSchema-instance" xsi:noNamespaceSchemaLocation="http://sumo.dlr.de/xsd/net_file.xsd">

    <location netOffset="-639821.34,-5194900.74" convBoundary="-71.12,-32.70,110.47,208.52" origBoundary="16.832675,46.890426,16.839802,46.896056" projParameter="+proj=utm +zone=33 +ellps=WGS84 +datum=WGS84 +units=m +no_defs"/>

    <type id="highway.bridleway" priority="1" numLanes="1" speed="2.78" allow="pedestrian" oneway="1" width="2.00"/>
    <type id="highway.bus_guideway" priority="1" numLanes="1" speed="8.33" allow="bus" oneway="1"/>
    <type id="highway.cycleway" priority="1" numLanes="1" speed="5.56" allow="bicycle" oneway="0" width="1.00"/>
    <type id="highway.footway" priority="1" numLanes="1" speed="2.78" allow="pedestrian" oneway="1" width="2.00"/>
    <type id="highway.ford" priority="1" numLanes="1" speed="2.78" allow="army" oneway="0"/>
    <type id="highway.living_street" priority="3" numLanes="1" speed="2.78" disallow="tram rail_urban rail rail_electric ship" oneway="0"/>
    <type id="highway.motorway" priority="13" numLanes="2" speed="44.44" allow="private emergency authority army vip passenger hov taxi bus coach delivery truck trailer motorcycle evehicle custom1 custom2" oneway="1"/>
    <type id="highway.motorway_link" priority="12" numLanes="1" speed="22.22" allow="private emergency authority army vip passenger hov taxi bus coach delivery truck trailer motorcycle evehicle custom1 custom2" oneway="1"/>
    <type id="highway.path" priority="1" numLanes="1" speed="2.78" allow="bicycle pedestrian" oneway="1" width="2.00"/>
    <type id="highway.pedestrian" priority="1" numLanes="1" speed="2.78" allow="pedestrian" oneway="1" width="2.00"/>
    <type id="highway.primary" priority="9" numLanes="2" speed="27.78" disallow="tram rail_urban rail rail_electric ship" oneway="0"/>
    <type id="highway.primary_link" priority="8" numLanes="1" speed="22.22" disallow="tram rail_urban rail rail_electric ship" oneway="0"/>
    <type id="highway.raceway" priority="14" numLanes="2" speed="83.33" allow="vip" oneway="0"/>
    <type id="highway.residential" priority="4" numLanes="1" speed="13.89" disallow="tram rail_urban rail rail_electric ship" oneway="0"/>
    <type id="highway.secondary" priority="7" numLanes="2" speed="27.78" disallow="tram rail_urban rail rail_electric ship" oneway="0"/>
    <type id="highway.secondary_link" priority="6" numLanes="1" speed="22.22" disallow="tram rail_urban rail rail_electric ship" oneway="0"/>
    <type id="highway.service" priority="2" numLanes="1" speed="5.56" allow="delivery bicycle pedestrian" oneway="0"/>
    <type id="highway.services" priority="1" numLanes="1" speed="8.33" disallow="tram rail_urban rail rail_electric ship" oneway="0"/>
    <type id="highway.stairs" priority="1" numLanes="1" speed="1.39" allow="pedestrian" oneway="1" width="2.00"/>
    <type id="highway.step" priority="1" numLanes="1" speed="1.39" allow="pedestrian" oneway="1" width="2.00"/>
    <type id="highway.steps" priority="1" numLanes="1" speed="1.39" allow="pedestrian" oneway="1" width="2.00"/>
    <type id="highway.tertiary" priority="6" numLanes="1" speed="22.22" disallow="tram rail_urban rail rail_electric ship" oneway="0"/>
    <type id="highway.tertiary_link" priority="5" numLanes="1" speed="22.22" disallow="tram rail_urban rail rail_electric ship" oneway="0"/>
    <type id="highway.track" priority="1" numLanes="1" speed="5.56" disallow="tram rail_urban rail rail_electric ship" oneway="0"/>
    <type id="highway.trunk" priority="11" numLanes="2" speed="27.78" disallow="tram rail_urban rail rail_electric bicycle pedestrian ship" oneway="0"/>
    <type id="highway.trunk_link" priority="10" numLanes="1" speed="22.22" disallow="tram rail_urban rail rail_electric bicycle pedestrian ship" oneway="0"/>
    <type id="highway.unclassified" priority="5" numLanes="1" speed="13.89" disallow="tram rail_urban rail rail_electric ship" oneway="0"/>
    <type id="highway.unsurfaced" priority="1" numLanes="1" speed="8.33" disallow="tram rail_urban rail rail_electric ship" oneway="0"/>
    <type id="railway.light_rail" priority="15" numLanes="1" speed="27.78" allow="rail_urban" oneway="1"/>
    <type id="railway.preserved" priority="15" numLanes="1" speed="27.78" allow="rail" oneway="1"/>
    <type id="railway.rail" priority="15" numLanes="1" speed="83.33" allow="rail rail_electric" oneway="1"/>
    <type id="railway.subway" priority="15" numLanes="1" speed="27.78" allow="rail_urban" oneway="1"/>
    <type id="railway.tram" priority="15" numLanes="1" speed="13.89" allow="tram" oneway="1"/>

    <edge id=":gneJ0_0" function="internal">
        <lane id=":gneJ0_0_0" index="0" speed="13.89" length="12.11" width="4.00" shape="114.79,3.16 114.17,15.25"/>
        <lane id=":gneJ0_0_1" index="1" speed="13.89" length="12.11" width="4.00" shape="110.70,2.95 110.07,15.04"/>
    </edge>
    <edge id=":gneJ0_2" function="internal">
        <lane id=":gneJ0_2_0" index="0" speed="13.89" length="5.86" width="4.50" shape="110.70,2.95 109.78,6.56 108.33,8.12"/>
    </edge>
    <edge id=":gneJ0_8" function="internal">
        <lane id=":gneJ0_8_0" index="0" speed="13.89" length="10.40" width="4.50" shape="108.33,8.12 107.45,9.06 103.72,10.43 98.58,10.69"/>
    </edge>
    <edge id=":gneJ0_3" function="internal">
        <lane id=":gneJ0_3_0" index="0" speed="13.89" length="5.85" width="4.00" shape="98.82,6.09 100.36,5.94 101.49,5.29 102.21,4.16 102.51,2.53"/>
    </edge>
    <edge id=":gneJ0_4" function="internal">
        <lane id=":gneJ0_4_0" index="0" speed="13.89" length="16.26" width="4.00" shape="98.82,6.09 103.91,6.88 107.48,8.63 109.53,11.35 110.07,15.04"/>
    </edge>
    <edge id=":gneJ0_5" function="internal">
        <lane id=":gneJ0_5_0" index="0" speed="13.89" length="5.85" width="4.50" shape="101.88,14.61 101.75,12.96 101.16,11.76 100.10,11.00 98.58,10.69"/>
    </edge>
    <edge id=":gneJ0_6" function="internal">
        <lane id=":gneJ0_6_0" index="0" speed="13.89" length="12.10" width="4.00" shape="101.88,14.61 102.51,2.53"/>
        <lane id=":gneJ0_6_1" index="1" speed="13.89" length="12.10" width="4.00" shape="105.98,14.83 106.60,2.74"/>
    </edge>
    <edge id=":gneJ10_0" function="internal">
        <lane id=":gneJ10_0_0" index="0" speed="13.89" length="4.89" width="3.25" shape="-53.55,195.18 -54.45,196.39 -55.31,196.76 -56.12,196.30 -56.89,195.00"/>
    </edge>
    <edge id=":gneJ11_0" function="internal">
        <lane id=":gneJ11_0_0" index="0" speed="13.89" length="5.26" width="3.50" shape="-71.30,19.34 -72.55,18.31 -72.91,17.37 -72.37,16.52 -70.94,15.76"/>
    </edge>
    <edge id=":gneJ12_0" function="internal">
        <lane id=":gneJ12_0_0" index="0" speed="13.89" length="10.23" width="4.00" shape="112.55,46.40 113.04,49.25 114.36,51.04 115.68,52.83 116.17,55.68"/>
        <lane id=":gneJ12_0_1" index="1" speed="13.89" length="10.23" width="4.00" shape="108.46,46.19 108.95,49.04 110.27,50.83 111.59,52.62 112.08,55.47"/>
    </edge>
    <edge id=":gneJ12_2" function="internal">
        <lane id=":gneJ12_2_0" index="0" speed="13.89" length="5.55" width="3.00" shape="108.46,46.19 107.33,48.83 105.01,50.16"/>
    </edge>
    <edge id=":gneJ12_9" function="internal">
        <lane id=":gneJ12_9_0" index="0" speed="13.89" length="12.82" width="3.00" shape="105.01,50.16 104.28,50.58 99.29,51.45 92.37,51.43"/>
    </edge>
    <edge id=":gneJ12_3" function="internal">
        <lane id=":gneJ12_3_0" index="0" speed="13.89" length="8.84" width="4.00" shape="92.55,48.33 95.87,48.34 98.26,47.91 99.73,47.05 100.27,45.77"/>
    </edge>
    <edge id=":gneJ12_4" function="internal">
        <lane id=":gneJ12_4_0" index="0" speed="13.89" length="22.11" width="4.00" shape="92.55,48.33 101.21,49.21 107.35,50.70 110.98,52.78 112.08,55.47"/>
    </edge>
    <edge id=":gneJ12_5" function="internal">
        <lane id=":gneJ12_5_0" index="0" speed="13.89" length="18.30" width="4.00" shape="92.55,48.33 99.42,49.11 104.28,50.52 107.14,52.57 107.98,55.25"/>
    </edge>
    <edge id=":gneJ12_6" function="internal">
        <lane id=":gneJ12_6_0" index="0" speed="13.89" length="5.24" width="3.00" shape="95.70,54.62 95.55,53.30 94.95,52.33 93.89,51.70 92.37,51.43"/>
    </edge>
    <edge id=":gneJ12_7" function="internal">
        <lane id=":gneJ12_7_0" index="0" speed="13.89" length="10.23" width="4.00" shape="95.70,54.62 96.49,51.83 97.98,50.19 99.48,48.55 100.27,45.77"/>
        <lane id=":gneJ12_7_1" index="1" speed="13.89" length="10.23" width="4.00" shape="99.80,54.83 100.58,52.05 102.08,50.40 103.58,48.76 104.36,45.98"/>
    </edge>
    <edge id=":gneJ13_0" function="internal">
        <lane id=":gneJ13_0_0" index="0" speed="13.89" length="1.31" shape="69.56,50.10 69.17,50.08 68.89,50.10 68.65,50.21 68.36,50.45"/>
    </edge>
    <edge id=":gneJ13_1" function="internal">
        <lane id=":gneJ13_1_0" index="0" speed="13.89" length="3.93" width="3.00" shape="66.07,48.07 66.76,47.55 67.61,47.20 68.60,47.02 69.74,47.01"/>
    </edge>
    <edge id=":gneJ14_0" function="internal">
        <lane id=":gneJ14_0_0" index="0" speed="13.89" length="9.48" width="3.50" shape="-12.51,79.91 -21.98,79.41"/>
    </edge>
    <edge id=":gneJ14_1" function="internal">
        <lane id=":gneJ14_1_0" index="0" speed="13.89" length="5.36" shape="-12.51,79.91 -15.30,79.33 -17.23,77.93 -17.29,77.80"/>
    </edge>
    <edge id=":gneJ14_6" function="internal">
        <lane id=":gneJ14_6_0" index="0" speed="13.89" length="5.36" shape="-17.29,77.80 -18.30,75.71 -18.52,72.69"/>
    </edge>
    <edge id=":gneJ14_2" function="internal">
        <lane id=":gneJ14_2_0" index="0" speed="13.89" length="5.13" width="3.50" shape="-15.22,72.89 -15.12,74.32 -14.60,75.37 -13.66,76.04 -12.31,76.31"/>
    </edge>
    <edge id=":gneJ14_3" function="internal">
        <lane id=":gneJ14_3_0" index="0" speed="13.89" length="10.68" width="3.50" shape="-15.22,72.89 -15.80,75.86 -17.12,77.94 -19.18,79.12 -21.98,79.41"/>
    </edge>
    <edge id=":gneJ14_4" function="internal">
        <lane id=":gneJ14_4_0" index="0" speed="13.89" length="5.15" shape="-21.79,75.81 -20.44,75.68 -19.44,75.11 -18.80,74.11 -18.52,72.69"/>
    </edge>
    <edge id=":gneJ14_5" function="internal">
        <lane id=":gneJ14_5_0" index="0" speed="13.89" length="9.49" width="3.50" shape="-21.79,75.81 -12.31,76.31"/>
    </edge>
    <edge id=":gneJ15_0" function="internal">
        <lane id=":gneJ15_0_0" index="0" speed="13.89" length="9.59" width="3.50" shape="0.03,80.59 -9.55,80.07"/>
    </edge>
    <edge id=":gneJ15_1" function="internal">
        <lane id=":gneJ15_1_0" index="0" speed="13.89" length="9.58" width="3.50" shape="-9.35,76.48 0.21,76.99"/>
    </edge>
    <edge id=":gneJ15_2" function="internal">
        <lane id=":gneJ15_2_0" index="0" speed="13.89" length="5.15" width="3.50" shape="-6.61,83.49 -6.72,82.06 -7.25,81.01 -8.19,80.35 -9.55,80.07"/>
    </edge>
    <edge id=":gneJ15_3" function="internal">
        <lane id=":gneJ15_3_0" index="0" speed="13.89" length="8.27" width="3.50" shape="-3.27,83.69 -2.90,80.70 -2.20,78.59 -1.16,77.35 0.21,76.99"/>
    </edge>
    <edge id=":gneJ16_0" function="internal">
        <lane id=":gneJ16_0_0" index="0" speed="13.89" length="5.14" width="3.25" shape="18.76,81.55 17.39,81.68 16.38,82.24 15.74,83.22 15.47,84.64"/>
    </edge>
    <edge id=":gneJ16_1" function="internal">
        <lane id=":gneJ16_1_0" index="0" speed="13.89" length="9.60" width="3.50" shape="18.76,81.55 9.17,81.05"/>
    </edge>
    <edge id=":gneJ16_2" function="internal">
        <lane id=":gneJ16_2_0" index="0" speed="13.89" length="9.60" width="3.50" shape="9.36,77.46 18.95,77.95"/>
    </edge>
    <edge id=":gneJ16_3" function="internal">
        <lane id=":gneJ16_3_0" index="0" speed="13.89" length="3.19" width="3.25" shape="9.36,77.46 10.70,77.96 11.61,79.29 11.65,79.43"/>
    </edge>
    <edge id=":gneJ16_4" function="internal">
        <lane id=":gneJ16_4_0" index="0" speed="13.89" length="5.08" width="3.25" shape="11.65,79.43 12.09,81.46 12.13,84.46"/>
    </edge>
    <edge id=":gneJ17_0" function="internal">
        <lane id=":gneJ17_0_0" index="0" speed="13.89" length="5.47" width="3.25" shape="58.46,83.59 56.91,83.72 55.78,84.27 55.07,85.25 54.77,86.66"/>
    </edge>
    <edge id=":gneJ17_1" function="internal">
        <lane id=":gneJ17_1_0" index="0" speed="13.89" length="10.11" width="3.50" shape="58.46,83.59 48.37,83.07"/>
    </edge>
    <edge id=":gneJ17_2" function="internal">
        <lane id=":gneJ17_2_0" index="0" speed="13.89" length="5.64" width="3.50" shape="58.46,83.59 55.41,82.99 53.33,81.56"/>
    </edge>
    <edge id=":gneJ17_12" function="internal">
        <lane id=":gneJ17_12_0" index="0" speed="13.89" length="5.64" width="3.50" shape="53.33,81.56 52.21,79.29 52.05,76.18"/>
    </edge>
    <edge id=":gneJ17_3" function="internal">
        <lane id=":gneJ17_3_0" index="0" speed="13.89" length="5.30" width="3.50" shape="55.64,76.52 55.71,77.98 56.23,79.04 57.21,79.72 58.65,80.00"/>
    </edge>
    <edge id=":gneJ17_4" function="internal">
        <lane id=":gneJ17_4_0" index="0" speed="13.89" length="10.18" width="3.25" shape="55.64,76.52 54.77,86.66"/>
    </edge>
    <edge id=":gneJ17_5" function="internal">
        <lane id=":gneJ17_5_0" index="0" speed="13.89" length="11.06" width="3.50" shape="55.64,76.52 54.94,79.51 53.50,81.61 51.31,82.79 48.37,83.07"/>
    </edge>
    <edge id=":gneJ17_6" function="internal">
        <lane id=":gneJ17_6_0" index="0" speed="13.89" length="5.43" width="3.50" shape="48.55,79.48 49.96,79.34 51.02,78.74 51.71,77.69 52.05,76.18"/>
    </edge>
    <edge id=":gneJ17_7" function="internal">
        <lane id=":gneJ17_7_0" index="0" speed="13.89" length="10.11" width="3.50" shape="48.55,79.48 58.65,80.00"/>
    </edge>
    <edge id=":gneJ17_8" function="internal">
        <lane id=":gneJ17_8_0" index="0" speed="13.89" length="5.49" width="3.25" shape="48.55,79.48 51.41,80.06 53.39,81.44 53.47,81.58"/>
    </edge>
    <edge id=":gneJ17_13" function="internal">
        <lane id=":gneJ17_13_0" index="0" speed="13.89" length="5.34" width="3.25" shape="53.47,81.58 54.52,83.65 54.77,86.66"/>
    </edge>
    <edge id=":gneJ17_9" function="internal">
        <lane id=":gneJ17_9_0" index="0" speed="13.89" length="5.23" width="3.50" shape="51.43,86.49 51.30,85.06 50.75,84.01 49.77,83.35 48.37,83.07"/>
    </edge>
    <edge id=":gneJ17_10" function="internal">
        <lane id=":gneJ17_10_0" index="0" speed="13.89" length="10.32" width="3.50" shape="51.43,86.49 52.05,76.18"/>
    </edge>
    <edge id=":gneJ17_11" function="internal">
        <lane id=":gneJ17_11_0" index="0" speed="13.89" length="11.07" width="3.50" shape="51.43,86.49 52.01,83.52 53.41,81.44 55.62,80.27 58.65,80.00"/>
    </edge>
    <edge id=":gneJ19_0" function="internal">
        <lane id=":gneJ19_0_0" index="0" speed="13.89" length="8.38" width="3.00" shape="-3.54,176.06 -5.77,175.15 -7.45,175.04 -9.22,175.26 -11.72,175.34"/>
    </edge>
    <edge id=":gneJ19_1" function="internal">
        <lane id=":gneJ19_1_0" index="0" speed="13.89" length="4.02" width="3.25" shape="-3.54,176.06 -5.69,174.60 -6.63,173.54"/>
    </edge>
    <edge id=":gneJ19_2" function="internal">
        <lane id=":gneJ19_2_0" index="0" speed="13.89" length="2.57" width="3.25" shape="-3.54,176.06 -4.25,175.28 -4.72,173.84"/>
    </edge>
    <edge id=":gneJ19_5" function="internal">
        <lane id=":gneJ19_5_0" index="0" speed="13.89" length="5.10" width="3.25" shape="-6.63,173.54 -7.19,172.91 -8.05,170.99 -8.27,168.84"/>
    </edge>
    <edge id=":gneJ19_6" function="internal">
        <lane id=":gneJ19_6_0" index="0" speed="13.89" length="4.85" width="3.25" shape="-4.72,173.84 -4.94,171.75 -4.92,169.00"/>
    </edge>
    <edge id=":gneJ19_3" function="internal">
        <lane id=":gneJ19_3_0" index="0" speed="13.89" length="5.40" width="3.25" shape="-11.56,172.24 -10.18,172.09 -9.18,171.47 -8.54,170.39 -8.27,168.84"/>
    </edge>
    <edge id=":gneJ19_4" function="internal">
        <lane id=":gneJ19_4_0" index="0" speed="13.89" length="9.79" shape="-11.56,172.24 -8.64,172.16 -6.57,171.92 -4.60,172.06 -2.01,173.14"/>
    </edge>
    <edge id=":gneJ2_0" function="internal">
        <lane id=":gneJ2_0_0" index="0" speed="13.89" length="5.74" width="3.75" shape="-40.03,3.52 -41.51,3.68 -42.60,4.32 -43.30,5.46 -43.60,7.08"/>
    </edge>
    <edge id=":gneJ2_1" function="internal">
        <lane id=":gneJ2_1_0" index="0" speed="13.89" length="12.19" width="3.25" shape="-40.03,3.52 -42.99,2.87 -45.17,1.28 -46.59,-1.26 -47.23,-4.75"/>
    </edge>
    <edge id=":gneJ2_2" function="internal">
        <lane id=":gneJ2_2_0" index="0" speed="13.89" length="6.29" width="4.50" shape="-43.89,-4.97 -43.54,-3.34 -42.74,-2.15 -41.49,-1.39 -39.79,-1.07"/>
    </edge>
    <edge id=":gneJ2_3" function="internal">
        <lane id=":gneJ2_3_0" index="0" speed="13.89" length="12.06" width="3.75" shape="-43.89,-4.97 -43.67,-1.68 -43.52,1.06 -43.48,3.79 -43.60,7.08"/>
    </edge>
    <edge id=":gneJ2_4" function="internal">
        <lane id=":gneJ2_4_0" index="0" speed="13.89" length="11.62" width="3.25" shape="-47.44,6.86 -47.24,3.64 -47.11,1.06 -47.09,-1.53 -47.23,-4.75"/>
    </edge>
    <edge id=":gneJ2_5" function="internal">
        <lane id=":gneJ2_5_0" index="0" speed="13.89" length="6.40" width="4.50" shape="-47.44,6.86 -46.79,3.25 -45.40,0.90"/>
    </edge>
    <edge id=":gneJ2_6" function="internal">
        <lane id=":gneJ2_6_0" index="0" speed="13.89" length="6.14" width="4.50" shape="-45.40,0.90 -45.29,0.72 -42.96,-0.72 -39.79,-1.07"/>
    </edge>
    <edge id=":gneJ20_0" function="internal">
        <lane id=":gneJ20_0_0" index="0" speed="13.89" length="5.56" width="4.50" shape="8.62,172.06 8.74,173.71 9.28,174.91 10.23,175.65 11.59,175.94"/>
    </edge>
    <edge id=":gneJ20_1" function="internal">
        <lane id=":gneJ20_1_0" index="0" speed="13.89" length="12.70" shape="5.28,171.91 4.59,175.46 2.92,177.35 0.27,177.58 -3.37,176.16"/>
    </edge>
    <edge id=":gneJ20_2" function="internal">
        <lane id=":gneJ20_2_0" index="0" speed="13.89" length="13.83" width="4.50" shape="-1.83,173.24 1.42,174.64 4.65,175.41 8.00,175.77 11.59,175.94"/>
    </edge>
    <edge id=":gneJ21_0" function="internal">
        <lane id=":gneJ21_0_0" index="0" speed="13.89" length="4.96" width="3.25" shape="-11.35,110.58 -9.96,110.45 -8.95,109.93 -8.30,109.03 -8.03,107.74"/>
    </edge>
    <edge id=":gneJ21_1" function="internal">
        <lane id=":gneJ21_1_0" index="0" speed="13.89" length="4.94" width="3.00" shape="-8.49,116.81 -8.63,115.48 -9.17,114.52 -10.12,113.92 -11.48,113.67"/>
    </edge>
    <edge id=":gneJ21_2" function="internal">
        <lane id=":gneJ21_2_0" index="0" speed="13.89" length="9.05" width="3.25" shape="-8.49,116.81 -8.03,107.74"/>
        <lane id=":gneJ21_2_1" index="1" speed="13.89" length="9.05" width="3.25" shape="-5.14,116.95 -4.68,107.94"/>
    </edge>
    <edge id=":gneJ22_0" function="internal">
        <lane id=":gneJ22_0_0" index="0" speed="13.89" length="4.53" width="3.00" shape="-26.22,113.05 -27.34,112.23 -27.70,111.43 -27.28,110.68 -26.08,109.95"/>
    </edge>
    <edge id=":gneJ23_0" function="internal">
        <lane id=":gneJ23_0_0" index="0" speed="13.89" length="4.82" shape="-17.01,48.17 -16.11,46.98 -15.26,46.62 -14.46,47.09 -13.71,48.37"/>
    </edge>
    <edge id=":gneJ24_0" function="internal">
        <lane id=":gneJ24_0_0" index="0" speed="13.89" length="1.17" width="3.50" shape="57.64,60.79 57.01,61.78"/>
    </edge>
    <edge id=":gneJ24_1" function="internal">
        <lane id=":gneJ24_1_0" index="0" speed="13.89" length="3.73" shape="53.43,61.44 53.62,60.39 53.97,59.73 54.53,59.16 55.35,58.42"/>
    </edge>
    <edge id=":gneJ26_0" function="internal">
        <lane id=":gneJ26_0_0" index="0" speed="13.89" length="4.89" width="3.25" shape="-48.02,-16.86 -47.27,-18.17 -46.46,-18.64 -45.60,-18.28 -44.68,-17.08"/>
    </edge>
    <edge id=":gneJ28_0" function="internal">
        <lane id=":gneJ28_0_0" index="0" speed="13.89" length="5.55" width="3.25" shape="-43.87,78.30 -45.46,78.42 -46.63,78.97 -47.36,79.95 -47.66,81.36"/>
    </edge>
    <edge id=":gneJ28_1" function="internal">
        <lane id=":gneJ28_1_0" index="0" speed="13.89" length="11.35" width="3.75" shape="-43.87,78.30 -47.00,77.71 -49.19,76.31 -50.44,74.11 -50.74,71.09"/>
    </edge>
    <edge id=":gneJ28_2" function="internal">
        <lane id=":gneJ28_2_0" index="0" speed="13.89" length="5.34" width="3.50" shape="-46.90,71.29 -46.76,72.72 -46.17,73.76 -45.15,74.42 -43.69,74.70"/>
    </edge>
    <edge id=":gneJ28_3" function="internal">
        <lane id=":gneJ28_3_0" index="0" speed="13.89" length="10.10" width="3.25" shape="-46.90,71.29 -47.66,81.36"/>
    </edge>
    <edge id=":gneJ28_4" function="internal">
        <lane id=":gneJ28_4_0" index="0" speed="13.89" length="10.09" width="3.75" shape="-51.00,81.18 -50.74,71.09"/>
    </edge>
    <edge id=":gneJ28_5" function="internal">
        <lane id=":gneJ28_5_0" index="0" speed="13.89" length="5.66" width="3.50" shape="-51.00,81.18 -50.41,78.21 -49.00,76.14 -48.89,76.09"/>
    </edge>
    <edge id=":gneJ28_6" function="internal">
        <lane id=":gneJ28_6_0" index="0" speed="13.89" length="5.49" width="3.50" shape="-48.89,76.09 -46.76,74.97 -43.69,74.70"/>
    </edge>
    <edge id=":gneJ29_0" function="internal">
        <lane id=":gneJ29_0_0" index="0" speed="13.89" length="5.56" width="4.50" shape="50.27,173.65 50.38,175.30 50.90,176.50 51.84,177.25 53.20,177.55"/>
    </edge>
    <edge id=":gneJ29_1" function="internal">
        <lane id=":gneJ29_1_0" index="0" speed="13.89" length="5.58" width="3.25" shape="43.63,177.13 45.00,176.95 46.00,176.28 46.64,175.12 46.92,173.47"/>
    </edge>
    <edge id=":gneJ29_2" function="internal">
        <lane id=":gneJ29_2_0" index="0" speed="13.89" length="9.57" width="4.50" shape="43.63,177.13 53.20,177.55"/>
    </edge>
    <edge id=":gneJ3_0" function="internal">
        <lane id=":gneJ3_0_0" index="0" speed="13.89" length="11.98" width="4.00" shape="104.33,-33.01 107.63,-37.46 110.78,-38.84 113.78,-37.15 116.61,-32.39"/>
        <lane id=":gneJ3_0_1" index="1" speed="13.89" length="11.98" width="4.00" shape="108.42,-32.80 109.52,-34.29 110.57,-34.75 111.57,-34.18 112.52,-32.60"/>
    </edge>
    <edge id=":gneJ4_0" function="internal">
        <lane id=":gneJ4_0_0" index="0" speed="13.89" length="10.10" width="4.00" shape="114.93,79.65 114.40,89.73"/>
        <lane id=":gneJ4_0_1" index="1" speed="13.89" length="10.10" width="4.00" shape="110.83,79.43 110.31,89.52"/>
        <lane id=":gneJ4_0_2" index="2" speed="13.89" length="10.10" width="4.00" shape="106.74,79.22 106.21,89.31"/>
    </edge>
    <edge id=":gneJ4_3" function="internal">
        <lane id=":gneJ4_3_0" index="0" speed="13.89" length="4.52" width="3.50" shape="106.74,79.22 105.60,82.16 104.44,82.90"/>
    </edge>
    <edge id=":gneJ4_11" function="internal">
        <lane id=":gneJ4_11_0" index="0" speed="13.89" length="14.31" width="3.50" shape="104.44,82.90 102.53,84.14 97.53,85.17 90.60,85.24"/>
    </edge>
    <edge id=":gneJ4_4" function="internal">
        <lane id=":gneJ4_4_0" index="0" speed="13.89" length="5.45" width="4.00" shape="90.79,81.65 92.33,81.52 93.45,80.97 94.16,79.99 94.46,78.58"/>
    </edge>
    <edge id=":gneJ4_5" function="internal">
        <lane id=":gneJ4_5_0" index="0" speed="13.89" length="22.62" width="4.00" shape="90.79,81.65 99.46,82.52 105.61,84.13 109.22,86.46 110.31,89.52"/>
    </edge>
    <edge id=":gneJ4_6" function="internal">
        <lane id=":gneJ4_6_0" index="0" speed="13.89" length="18.84" width="4.00" shape="90.79,81.65 97.67,82.43 102.54,83.97 105.38,86.26 106.21,89.31"/>
    </edge>
    <edge id=":gneJ4_7" function="internal">
        <lane id=":gneJ4_7_0" index="0" speed="13.89" length="5.45" width="3.50" shape="93.93,88.67 93.79,87.24 93.18,86.19 92.12,85.52 90.60,85.24"/>
    </edge>
    <edge id=":gneJ4_8" function="internal">
        <lane id=":gneJ4_8_0" index="0" speed="13.89" length="10.10" width="4.00" shape="93.93,88.67 94.46,78.58"/>
        <lane id=":gneJ4_8_1" index="1" speed="13.89" length="10.10" width="4.00" shape="98.03,88.88 98.55,78.80"/>
        <lane id=":gneJ4_8_2" index="2" speed="13.89" length="10.10" width="4.00" shape="102.12,89.09 102.64,79.01"/>
    </edge>
    <edge id=":gneJ5_0" function="internal">
        <lane id=":gneJ5_0_0" index="0" speed="13.89" length="7.49" width="4.00" shape="109.89,176.64 109.50,184.12"/>
        <lane id=":gneJ5_0_1" index="1" speed="13.89" length="7.49" width="4.00" shape="105.79,176.42 105.41,183.91"/>
        <lane id=":gneJ5_0_2" index="2" speed="13.89" length="7.49" width="4.00" shape="101.70,176.21 101.31,183.69"/>
    </edge>
    <edge id=":gneJ5_3" function="internal">
        <lane id=":gneJ5_3_0" index="0" speed="13.89" length="5.85" width="4.00" shape="85.72,179.14 87.26,178.98 88.39,178.33 89.11,177.20 89.42,175.57"/>
    </edge>
    <edge id=":gneJ5_4" function="internal">
        <lane id=":gneJ5_4_0" index="0" speed="13.89" length="20.96" width="4.00" shape="85.72,179.14 94.41,179.80 100.58,180.82 104.25,182.19 105.41,183.91"/>
    </edge>
    <edge id=":gneJ5_5" function="internal">
        <lane id=":gneJ5_5_0" index="0" speed="13.89" length="17.02" width="4.00" shape="85.72,179.14 92.61,179.71 97.51,180.67 100.41,181.99 101.31,183.69"/>
    </edge>
    <edge id=":gneJ5_6" function="internal">
        <lane id=":gneJ5_6_0" index="0" speed="13.89" length="7.50" width="4.00" shape="89.03,183.06 89.42,175.57"/>
        <lane id=":gneJ5_6_1" index="1" speed="13.89" length="7.50" width="4.00" shape="93.12,183.27 93.51,175.79"/>
        <lane id=":gneJ5_6_2" index="2" speed="13.89" length="7.50" width="4.00" shape="97.22,183.48 97.60,176.00"/>
    </edge>
    <edge id=":gneJ6_0" function="internal">
        <lane id=":gneJ6_0_0" index="0" speed="13.89" length="17.96" width="4.00" shape="108.22,209.05 102.70,216.46 97.45,218.76 92.47,215.93 87.74,207.99"/>
        <lane id=":gneJ6_0_1" index="1" speed="13.89" length="17.96" width="4.00" shape="104.12,208.84 100.81,213.28 97.66,214.66 94.67,212.97 91.84,208.20"/>
        <lane id=":gneJ6_0_2" index="2" speed="13.89" length="17.96" width="4.00" shape="100.03,208.63 98.92,210.11 97.87,210.57 96.88,210.00 95.93,208.41"/>
    </edge>
    <edge id=":gneJ7_0" function="internal">
        <lane id=":gneJ7_0_0" index="0" speed="13.89" length="10.07" width="3.75" shape="-44.04,14.93 -44.58,24.99"/>
    </edge>
    <edge id=":gneJ7_1" function="internal">
        <lane id=":gneJ7_1_0" index="0" speed="13.89" length="5.80" width="3.50" shape="-44.04,14.93 -44.68,17.99 -46.20,20.06 -46.30,20.11"/>
    </edge>
    <edge id=":gneJ7_6" function="internal">
        <lane id=":gneJ7_6_0" index="0" speed="13.89" length="5.80" width="3.50" shape="-46.30,20.11 -48.59,21.16 -51.87,21.28"/>
    </edge>
    <edge id=":gneJ7_2" function="internal">
        <lane id=":gneJ7_2_0" index="0" speed="13.89" length="5.41" width="3.75" shape="-51.51,17.70 -50.00,17.64 -48.89,17.12 -48.18,16.15 -47.89,14.71"/>
    </edge>
    <edge id=":gneJ7_3" function="internal">
        <lane id=":gneJ7_3_0" index="0" speed="13.89" length="11.34" width="3.75" shape="-51.51,17.70 -48.36,18.42 -46.15,19.88 -44.89,22.07 -44.58,24.99"/>
    </edge>
    <edge id=":gneJ7_4" function="internal">
        <lane id=":gneJ7_4_0" index="0" speed="13.89" length="5.54" width="3.50" shape="-48.43,24.79 -48.58,23.39 -49.21,22.34 -50.30,21.63 -51.87,21.28"/>
    </edge>
    <edge id=":gneJ7_5" function="internal">
        <lane id=":gneJ7_5_0" index="0" speed="13.89" length="10.10" width="3.75" shape="-48.43,24.79 -47.89,14.71"/>
    </edge>
    <edge id=":gneJ9_0" function="internal">
        <lane id=":gneJ9_0_0" index="0" speed="13.89" length="4.94" width="3.25" shape="-49.30,173.40 -50.67,173.51 -51.68,174.02 -52.31,174.93 -52.57,176.23"/>
    </edge>
    <edge id=":gneJ9_1" function="internal">
        <lane id=":gneJ9_1_0" index="0" speed="13.89" length="10.14" width="3.25" shape="-49.30,173.40 -52.11,172.87 -54.07,171.62 -55.18,169.66 -55.45,166.97"/>
    </edge>
    <edge id=":gneJ9_2" function="internal">
        <lane id=":gneJ9_2_0" index="0" speed="13.89" length="4.94" width="3.00" shape="-52.10,167.14 -51.97,168.46 -51.44,169.43 -50.49,170.04 -49.14,170.30"/>
    </edge>
    <edge id=":gneJ9_3" function="internal">
        <lane id=":gneJ9_3_0" index="0" speed="13.89" length="9.10" width="3.25" shape="-52.10,167.14 -52.57,176.23"/>
    </edge>
    <edge id=":gneJ9_4" function="internal">