<?xml version="1.0" encoding="UTF-8"?>

<!-- generated on Wed Dec 11 15:34:48 2019 by Eclipse SUMO netconvert Version 1.4.0
<configuration xmlns:xsi="http://www.w3.org/2001/XMLSchema-instance" xsi:noNamespaceSchemaLocation="http://sumo.dlr.de/xsd/netconvertConfiguration.xsd">

    <input>
        <opendrive-files value="ZalaZONE_SmartCityZone_v0.1.xodr"/>
    </input>

    <output>
        <output-file value="campus5.net.xml"/>
    </output>

    <processing>
        <geometry.max-grade.fix value="false"/>
    </processing>

    <tls_building>
        <tls.left-green.time value="0"/>
    </tls_building>

    <junctions>
        <rectangular-lane-cut value="true"/>
    </junctions>

    <report>
        <aggregate-warnings value="5"/>
    </report>

</configuration>
-->

<net version="1.3" junctionCornerDetail="5" rectangularLaneCut="true" limitTurnSpeed="5.50" xmlns:xsi="http://www.w3.org/2001/XMLSchema-instance" xsi:noNamespaceSchemaLocation="http://sumo.dlr.de/xsd/net_file.xsd">

    <location netOffset="43.08,133.50" convBoundary="0.00,0.00,197.07,314.95" origBoundary="0.000000,0.000000,0.000000,0.000000" projParameter="+proj=tmerc +lat_0=46.89363954156637 +lon_0=16.83494981191994 +k=1 +x_0=0 +y_0=0 +datum=WGS84 +units=m +geoidgrids=egm96_15.gtx +vunits=m +no_defs "/>

    <type id="bidirectional" priority="1" speed="1.39" disallow="pedestrian tram rail_urban rail rail_electric rail_fast ship" width="3.65"/>
    <type id="border" priority="0" speed="1.39" disallow="all" discard="1" width="0.10"/>
    <type id="driving" priority="1" speed="13.89" disallow="pedestrian tram rail_urban rail rail_electric rail_fast ship" width="3.65"/>
    <type id="entry" priority="1" speed="22.22" disallow="pedestrian tram rail_urban rail rail_electric rail_fast ship" width="3.65"/>
    <type id="exit" priority="1" speed="22.22" disallow="pedestrian tram rail_urban rail rail_electric rail_fast ship" width="3.65"/>
    <type id="median" priority="0" speed="1.39" disallow="all" discard="1" width="0.10"/>
    <type id="mwyEntry" priority="1" speed="22.22" allow="private emergency authority army vip passenger hov taxi bus coach delivery truck trailer motorcycle evehicle custom1 custom2" width="3.65"/>
    <type id="mwyExit" priority="1" speed="22.22" allow="private emergency authority army vip passenger hov taxi bus coach delivery truck trailer motorcycle evehicle custom1 custom2" width="3.65"/>
    <type id="none" priority="0" speed="1.39" disallow="all" discard="1" width="1.00"/>
    <type id="offRamp" priority="1" speed="22.22" allow="private emergency authority army vip passenger hov taxi bus coach delivery truck trailer motorcycle evehicle custom1 custom2" width="3.65"/>
    <type id="onRamp" priority="1" speed="22.22" allow="private emergency authority army vip passenger hov taxi bus coach delivery truck trailer motorcycle evehicle custom1 custom2" width="3.65"/>
    <type id="parking" priority="1" speed="1.39" disallow="pedestrian tram rail_urban rail rail_electric rail_fast ship" width="2.50"/>
    <type id="rail" priority="3" speed="33.33" allow="rail_urban rail rail_electric rail_fast" width="3.65"/>
    <type id="restricted" priority="0" speed="13.89" disallow="all" width="3.65"/>
    <type id="roadWorks" priority="0" speed="1.39" allow="authority" width="3.65"/>
    <type id="shoulder" priority="0" speed="1.39" disallow="all" discard="1" width="1.00"/>
    <type id="special1" priority="1" speed="22.22" allow="custom1" discard="1" width="3.65"/>
    <type id="special2" priority="1" speed="22.22" allow="custom2" discard="1" width="3.65"/>
    <type id="special3" priority="1" speed="22.22" allow="custom1 custom2" discard="1" width="3.65"/>
    <type id="stop" priority="1" speed="13.89" disallow="pedestrian tram rail_urban rail rail_electric rail_fast ship" width="3.65"/>
    <type id="tram" priority="2" speed="13.89" allow="tram" width="3.65"/>

    <edge id=":100_0" function="internal">
        <lane id=":100_0_0" index="0" disallow="pedestrian tram rail_urban rail rail_electric rail_fast ship" speed="7.64" length="8.69" width="2.75" shape="74.28,98.52,198.71 73.14,99.42,198.70 72.30,101.03,198.69 71.75,103.35,198.67 71.50,106.38,198.65"/>
    </edge>
    <edge id=":100_1" function="internal">
        <lane id=":100_1_0" index="0" disallow="pedestrian tram rail_urban rail rail_electric rail_fast ship" speed="6.61" length="8.03" width="2.75" shape="68.75,106.29,198.65 68.76,103.08,198.67 68.54,100.72,198.68 68.10,99.24,198.69 67.44,98.62,198.69"/>
    </edge>
    <edge id=":111_0" function="internal">
        <lane id=":111_0_0" index="0" disallow="pedestrian tram rail_urban rail rail_electric rail_fast ship" speed="8.85" length="17.24" width="4.36" shape="165.88,230.27,201.20 171.18,229.83,201.23 174.99,228.20,201.25 177.32,225.36,201.27 178.15,221.33,201.30"/>
    </edge>
    <edge id=":111_1" function="internal">
        <lane id=":111_1_0" index="0" disallow="pedestrian tram rail_urban rail rail_electric rail_fast ship" speed="13.89" length="30.24" width="3.50" shape="181.48,251.65,201.60 182.08,221.41,201.30"/>
        <lane id=":111_1_1" index="1" disallow="pedestrian tram rail_urban rail rail_electric rail_fast ship" speed="13.89" length="30.24" width="4.00" shape="185.23,251.72,201.60 185.83,221.49,201.30"/>
    </edge>
    <edge id=":12.11_0" function="internal">
        <lane id=":12.11_0_0" index="0" disallow="pedestrian tram rail_urban rail rail_electric rail_fast ship" speed="13.89" length="7.99" width="4.53" shape="121.67,229.15,200.89 129.65,229.33,200.97"/>
    </edge>
    <edge id=":13.12_0" function="internal">
        <lane id=":13.12_0_0" index="0" disallow="pedestrian tram rail_urban rail rail_electric rail_fast ship" speed="13.89" length="4.00" width="4.58" shape="111.91,228.89,200.79 115.91,229.05,200.83"/>
    </edge>
    <edge id=":138_0" function="internal">
        <lane id=":138_0_0" index="0" disallow="pedestrian tram rail_urban rail rail_electric rail_fast ship" speed="13.89" length="17.14" width="3.75" shape="145.38,106.56,199.77 142.83,123.51,199.77"/>
    </edge>
    <edge id=":138_1" function="internal">
        <lane id=":138_1_0" index="0" disallow="pedestrian tram rail_urban rail rail_electric rail_fast ship" speed="13.89" length="16.06" width="3.52" shape="139.08,123.41,199.77 139.36,107.35,199.77"/>
    </edge>
    <edge id=":149_0" function="internal">
        <lane id=":149_0_0" index="0" disallow="pedestrian tram rail_urban rail rail_electric rail_fast ship" speed="7.76" length="13.16" width="3.25" shape="151.63,135.89,200.08 147.22,136.15,200.05 144.05,137.21,200.04 142.12,139.06,200.02 141.41,141.69,200.01"/>
    </edge>
    <edge id=":149_1" function="internal">
        <lane id=":149_1_0" index="0" disallow="pedestrian tram rail_urban rail rail_electric rail_fast ship" speed="13.89" length="19.24" width="3.50" shape="151.63,135.89,200.08 132.39,135.27,199.89"/>
    </edge>
    <edge id=":149_2" function="internal">
        <lane id=":149_2_0" index="0" disallow="pedestrian tram rail_urban rail rail_electric rail_fast ship" speed="8.88" length="2.57" width="3.75" shape="151.63,135.89,200.08 149.80,134.08,200.03"/>
    </edge>
    <edge id=":149_12" function="internal">
        <lane id=":149_12_0" index="0" disallow="pedestrian tram rail_urban rail rail_electric rail_fast ship" speed="8.88" length="15.10" width="3.75" shape="149.80,134.08,200.03 139.08,123.45,199.77"/>
    </edge>
    <edge id=":149_3" function="internal">
        <lane id=":149_3_0" index="0" disallow="pedestrian tram rail_urban rail rail_electric rail_fast ship" speed="7.60" length="12.53" width="3.50" shape="142.83,123.56,199.77 151.71,132.39,200.08"/>
    </edge>
    <edge id=":149_4" function="internal">
        <lane id=":149_4_0" index="0" disallow="pedestrian tram rail_urban rail rail_electric rail_fast ship" speed="13.89" length="18.19" width="3.25" shape="142.83,123.56,199.77 141.41,141.69,200.01"/>
    </edge>
    <edge id=":149_5" function="internal">
        <lane id=":149_5_0" index="0" disallow="pedestrian tram rail_urban rail rail_electric rail_fast ship" speed="8.42" length="15.69" width="3.50" shape="142.83,123.56,199.77 132.39,135.27,199.89"/>
    </edge>
    <edge id=":149_6" function="internal">
        <lane id=":149_6_0" index="0" disallow="pedestrian tram rail_urban rail rail_electric rail_fast ship" speed="6.21" length="8.22" width="3.75" shape="132.61,128.52,199.89 139.08,123.45,199.77"/>
    </edge>
    <edge id=":149_7" function="internal">
        <lane id=":149_7_0" index="0" disallow="pedestrian tram rail_urban rail rail_electric rail_fast ship" speed="13.89" length="19.22" width="3.50" shape="132.51,131.77,199.89 151.71,132.39,200.08"/>
    </edge>
    <edge id=":149_8" function="internal">
        <lane id=":149_8_0" index="0" disallow="pedestrian tram rail_urban rail rail_electric rail_fast ship" speed="8.30" length="6.22" width="3.25" shape="132.51,131.77,199.89 136.50,132.50,199.92 138.29,133.71,199.94"/>
    </edge>
    <edge id=":149_13" function="internal">
        <lane id=":149_13_0" index="0" disallow="pedestrian tram rail_urban rail rail_electric rail_fast ship" speed="8.30" length="8.97" width="3.25" shape="138.29,133.71,199.94 139.32,134.40,199.95 140.96,137.46,199.98 141.41,141.69,200.01"/>
    </edge>
    <edge id=":149_9" function="internal">
        <lane id=":149_9_0" index="0" disallow="pedestrian tram rail_urban rail rail_electric rail_fast ship" speed="6.75" length="9.76" width="3.50" shape="138.17,141.60,200.01 137.87,138.90,199.98 136.81,136.95,199.95 134.98,135.74,199.92 132.39,135.27,199.89"/>
    </edge>
    <edge id=":149_10" function="internal">
        <lane id=":149_10_0" index="0" disallow="pedestrian tram rail_urban rail rail_electric rail_fast ship" speed="13.89" length="18.17" width="3.75" shape="138.17,141.60,200.01 139.08,123.45,199.77"/>
    </edge>
    <edge id=":149_11" function="internal">
        <lane id=":149_11_0" index="0" disallow="pedestrian tram rail_urban rail rail_electric rail_fast ship" speed="9.08" length="18.53" width="3.50" shape="138.17,141.60,200.01 139.11,137.45,200.02 141.69,134.52,200.04 145.89,132.84,200.05 151.71,132.39,200.08"/>
    </edge>
    <edge id=":206_0" function="internal">
        <lane id=":206_0_0" index="0" disallow="pedestrian tram rail_urban rail rail_electric rail_fast ship" speed="10.68" length="25.93" width="4.00" shape="169.87,57.42,199.56 177.72,56.71,199.57 183.38,54.19,199.57 186.85,49.85,199.57 188.13,43.69,199.58"/>
    </edge>
    <edge id=":206_1" function="internal">
        <lane id=":206_1_0" index="0" disallow="pedestrian tram rail_urban rail rail_electric rail_fast ship" speed="8.80" length="38.32" width="3.49" shape="169.11,99.23,199.79 169.79,60.92,199.56"/>
    </edge>
    <edge id=":206_2" function="internal">
        <lane id=":206_2_0" index="0" disallow="pedestrian tram rail_urban rail rail_electric rail_fast ship" speed="13.89" length="62.63" width="4.00" shape="169.11,99.23,199.79 176.90,95.88,199.76 182.67,85.50,199.72 186.41,68.11,199.66 188.13,43.69,199.58"/>
    </edge>
    <edge id=":206_3" function="internal">
        <lane id=":206_3_0" index="0" disallow="pedestrian tram rail_urban rail rail_electric rail_fast ship" speed="8.40" length="15.60" width="3.00" shape="181.31,109.04,200.17 180.61,106.14,200.10 178.33,104.04,200.02 174.48,102.74,199.93 169.05,102.23,199.79"/>
    </edge>
    <edge id=":206_4" function="internal">
        <lane id=":206_4_0" index="0" disallow="pedestrian tram rail_urban rail rail_electric rail_fast ship" speed="13.89" length="54.40" width="3.49" shape="185.06,109.14,200.17 184.59,88.18,199.94 181.89,73.15,199.77 176.95,64.07,199.65 169.79,60.92,199.56"/>
    </edge>
    <edge id=":206_5" function="internal">
        <lane id=":206_5_0" index="0" disallow="pedestrian tram rail_urban rail rail_electric rail_fast ship" speed="13.89" length="65.53" width="4.00" shape="185.06,109.14,200.17 188.13,43.69,199.58"/>
        <lane id=":206_5_1" index="1" disallow="pedestrian tram rail_urban rail rail_electric rail_fast ship" speed="13.89" length="65.53" width="3.50" shape="188.81,109.24,200.17 191.88,43.78,199.58"/>
    </edge>
    <edge id=":21.10_0" function="internal">
        <lane id=":21.10_0_0" index="0" disallow="pedestrian tram rail_urban rail rail_electric rail_fast ship" speed="13.89" length="0.10" width="2.50" shape="64.52,203.77,200.02 64.52,203.77,200.02"/>
    </edge>
    <edge id=":25.end_0" function="internal">
        <lane id=":25.end_0_0" index="0" disallow="pedestrian tram rail_urban rail rail_electric rail_fast ship" speed="4.08" length="5.84" width="4.00" shape="188.55,315.02,202.24 187.50,316.49,202.24 186.48,316.95,202.24 185.50,316.41,202.24 184.55,314.88,202.24"/>
    </edge>
    <edge id=":26.17_0" function="internal">
        <lane id=":26.17_0_0" index="0" disallow="pedestrian tram rail_urban rail rail_electric rail_fast ship" speed="13.89" length="1.92" width="3.25" shape="139.11,92.22,199.77 139.12,91.66,199.77 139.17,91.27,199.77 139.25,90.89,199.77 139.34,90.33,199.77"/>
    </edge>
    <edge id=":261_0" function="internal">
        <lane id=":261_0_0" index="0" disallow="pedestrian tram rail_urban rail rail_electric rail_fast ship" speed="10.74" length="26.27" width="2.75" shape="89.90,134.11,199.48 80.35,133.24,199.35 73.56,131.22,199.26 69.54,128.06,199.19 68.28,123.76,199.13"/>
    </edge>
    <edge id=":261_1" function="internal">
        <lane id=":261_1_0" index="0" disallow="pedestrian tram rail_urban rail rail_electric rail_fast ship" speed="9.72" length="21.55" width="3.50" shape="71.03,123.83,199.13 72.16,126.60,199.18 75.69,128.65,199.25 81.64,129.99,199.34 89.99,130.61,199.48"/>
    </edge>
    <edge id=":261_2" function="internal">
        <lane id=":261_2_0" index="0" disallow="pedestrian tram rail_urban rail rail_electric rail_fast ship" speed="13.89" length="24.82" width="2.75" shape="79.62,145.40,199.51 77.91,138.50,199.40 73.98,132.70,199.29 70.03,127.84,199.20 68.28,123.76,199.13"/>
    </edge>
    <edge id=":261_3" function="internal">
        <lane id=":261_3_0" index="0" disallow="pedestrian tram rail_urban rail rail_electric rail_fast ship" speed="8.97" length="14.17" width="3.50" shape="82.87,145.47,199.51 83.42,138.90,199.50 84.80,134.23,199.49 86.48,132.10,199.49"/>
    </edge>
    <edge id=":261_4" function="internal">
        <lane id=":261_4_0" index="0" disallow="pedestrian tram rail_urban rail rail_electric rail_fast ship" speed="8.97" length="3.94" width="3.50" shape="86.48,132.10,199.49 86.99,131.47,199.49 89.99,130.61,199.48"/>
    </edge>
    <edge id=":27.27.37_0" function="internal">
        <lane id=":27.27.37_0_0" index="0" disallow="pedestrian tram rail_urban rail rail_electric rail_fast ship" speed="13.89" length="2.60" width="2.17" shape="41.73,176.74,199.63 41.58,177.50,199.64 41.29,177.98,199.64 41.00,178.47,199.65 40.85,179.23,199.65"/>
        <lane id=":27.27.37_0_1" index="1" disallow="pedestrian tram rail_urban rail rail_electric rail_fast ship" speed="13.89" length="2.60" width="3.77" shape="37.96,176.62,199.63 37.88,179.14,199.65"/>
    </edge>
    <edge id=":27.27.37_2" function="internal">
        <lane id=":27.27.37_2_0" index="0" disallow="pedestrian tram rail_urban rail rail_electric rail_fast ship" speed="13.89" length="2.99" width="3.94" shape="32.27,178.98,199.65 30.35,176.40,199.63"/>
        <lane id=":27.27.37_2_1" index="1" disallow="pedestrian tram rail_urban rail rail_electric rail_fast ship" speed="13.89" length="2.99" width="3.75" shape="35.11,179.06,199.65 34.98,178.28,199.65 34.66,177.79,199.64 34.33,177.29,199.64 34.20,176.51,199.63"/>
    </edge>
    <edge id=":27.29.61_0" function="internal">
        <lane id=":27.29.61_0_0" index="0" allow="emergency authority" speed="13.89" length="2.53" width="1.79" shape="40.84,179.43,199.65 40.56,181.95,199.67"/>
        <lane id=":27.29.61_0_1" index="1" disallow="pedestrian tram rail_urban rail rail_electric rail_fast ship" speed="13.89" length="2.53" width="3.75" shape="37.87,179.34,199.65 37.79,181.87,199.67"/>
    </edge>
    <edge id=":27.29.61_2" function="internal">
        <lane id=":27.29.61_2_0" index="0" disallow="pedestrian tram rail_urban rail rail_electric rail_fast ship" speed="13.89" length="2.56" width="3.94" shape="32.64,181.71,199.67 32.59,180.96,199.66 32.45,180.44,199.66 32.31,179.93,199.65 32.26,179.18,199.65"/>
        <lane id=":27.29.61_2_1" index="1" allow="emergency authority" speed="13.89" length="2.56" width="1.76" shape="35.26,181.79,199.67 35.25,181.04,199.66 35.18,180.53,199.66 35.12,180.01,199.65 35.11,179.26,199.65"/>
    </edge>
    <edge id=":28.27_0" function="internal">
        <lane id=":28.27_0_0" index="0" allow="emergency authority" speed="13.89" length="6.41" width="0.23" shape="40.40,187.43,199.70 40.21,189.32,199.71 39.87,190.60,199.72 39.54,191.87,199.72 39.34,193.77,199.73"/>
        <lane id=":28.27_0_1" index="1" disallow="pedestrian tram rail_urban rail rail_electric rail_fast ship" speed="13.89" length="6.41" width="3.66" shape="37.63,187.35,199.70 37.40,193.71,199.73"/>
    </edge>
    <edge id=":28.27_2" function="internal">
        <lane id=":28.27_2_0" index="0" disallow="pedestrian tram rail_urban rail rail_electric rail_fast ship" speed="13.89" length="6.60" width="3.92" shape="33.80,193.61,199.73 33.62,191.69,199.72 33.14,190.41,199.72 32.66,189.12,199.71 32.48,187.20,199.70"/>
    </edge>
    <edge id=":29.28_0" function="internal">
        <lane id=":29.28_0_0" index="0" disallow="pedestrian tram rail_urban rail rail_electric rail_fast ship" speed="13.89" length="6.37" width="3.61" shape="37.40,193.91,199.73 37.19,200.28,199.77"/>
    </edge>
    <edge id=":29.28_1" function="internal">
        <lane id=":29.28_1_0" index="0" disallow="pedestrian tram rail_urban rail rail_electric rail_fast ship" speed="13.89" length="6.37" width="3.56" shape="33.71,200.18,199.77 33.79,193.81,199.73"/>
    </edge>
    <edge id=":311_0" function="internal">
        <lane id=":311_0_0" index="0" disallow="pedestrian tram rail_urban rail rail_electric rail_fast ship" speed="6.81" length="10.00" width="4.50" shape="139.16,223.07,200.89 139.45,225.93,200.93 140.50,227.99,200.97 142.30,229.26,201.00 144.87,229.73,201.04"/>
    </edge>
    <edge id=":311_1" function="internal">
        <lane id=":311_1_0" index="0" disallow="pedestrian tram rail_urban rail rail_electric rail_fast ship" speed="6.95" length="10.01" width="3.25" shape="129.83,229.34,200.97 132.43,229.00,200.95 134.30,227.82,200.93 135.46,225.82,200.92 135.91,222.98,200.89"/>
    </edge>
    <edge id=":311_2" function="internal">
        <lane id=":311_2_0" index="0" disallow="pedestrian tram rail_urban rail rail_electric rail_fast ship" speed="13.89" length="15.04" width="4.50" shape="129.83,229.34,200.97 144.87,229.73,201.04"/>
    </edge>
    <edge id=":322_0" function="internal">
        <lane id=":322_0_0" index="0" disallow="pedestrian tram rail_urban rail rail_electric rail_fast ship" speed="7.27" length="11.69" width="2.50" shape="79.11,175.90,199.86 78.69,172.01,199.80 77.61,169.26,199.76 75.88,167.64,199.72 73.48,167.15,199.69"/>
    </edge>
    <edge id=":322_1" function="internal">
        <lane id=":322_1_0" index="0" disallow="pedestrian tram rail_urban rail rail_electric rail_fast ship" speed="13.89" length="16.53" width="3.00" shape="79.11,175.90,199.86 79.34,159.31,199.67"/>
        <lane id=":322_1_1" index="1" disallow="pedestrian tram rail_urban rail rail_electric rail_fast ship" speed="13.89" length="16.53" width="3.50" shape="82.36,175.83,199.86 82.59,159.37,199.67"/>
    </edge>
    <edge id=":322_3" function="internal">
        <lane id=":322_3_0" index="0" disallow="pedestrian tram rail_urban rail rail_electric rail_fast ship" speed="6.54" length="9.00" width="3.00" shape="73.41,164.65,199.69 75.96,164.26,199.68 77.80,163.23,199.68 78.93,161.58,199.68 79.34,159.31,199.67"/>
    </edge>
    <edge id=":347_0" function="internal">
        <lane id=":347_0_0" index="0" disallow="pedestrian tram rail_urban rail rail_electric rail_fast ship" speed="11.83" length="14.77" width="4.50" shape="178.16,221.06,201.29 177.79,217.75,201.25 176.57,214.53,201.20 174.48,211.40,201.15 171.53,208.38,201.09"/>
    </edge>
    <edge id=":347_1" function="internal">
        <lane id=":347_1_0" index="0" disallow="pedestrian tram rail_urban rail rail_electric rail_fast ship" speed="13.89" length="14.97" width="4.00" shape="178.16,221.06,201.29 178.68,206.08,201.14"/>
        <lane id=":347_1_1" index="1" disallow="pedestrian tram rail_urban rail rail_electric rail_fast ship" speed="13.89" length="14.97" width="3.50" shape="182.09,221.14,201.29 182.43,206.18,201.14"/>
        <lane id=":347_1_2" index="2" disallow="pedestrian tram rail_urban rail rail_electric rail_fast ship" speed="13.89" length="14.97" width="4.00" shape="185.84,221.22,201.29 186.17,206.28,201.14"/>
    </edge>
    <edge id=":37.36_0" function="internal">
        <lane id=":37.36_0_0" index="0" disallow="pedestrian tram rail_urban rail rail_electric rail_fast ship" speed="13.89" length="0.10" width="3.50" shape="92.04,134.16,199.50 92.04,134.16,199.50"/>
    </edge>
    <edge id=":37.36_1" function="internal">
        <lane id=":37.36_1_0" index="0" disallow="pedestrian tram rail_urban rail rail_electric rail_fast ship" speed="13.89" length="0.10" width="3.50" shape="92.14,130.67,199.50 92.14,130.67,199.50"/>
    </edge>
    <edge id=":375_0" function="internal">
        <lane id=":375_0_0" index="0" disallow="pedestrian tram rail_urban rail rail_electric rail_fast ship" speed="13.89" length="6.96" width="3.74" shape="119.67,54.72,198.94 126.63,54.77,199.02"/>
    </edge>
    <edge id=":381_0" function="internal">
        <lane id=":381_0_0" index="0" disallow="pedestrian tram rail_urban rail rail_electric rail_fast ship" speed="13.89" length="21.09" width="3.75" shape="155.65,60.52,199.40 150.96,60.49,199.33 145.11,60.60,199.25 139.28,60.80,199.17 134.58,61.02,199.10"/>
    </edge>
    <edge id=":381_1" function="internal">
        <lane id=":381_1_0" index="0" disallow="pedestrian tram rail_urban rail rail_electric rail_fast ship" speed="13.89" length="21.87" width="3.50" shape="133.97,55.36,199.10 155.77,57.03,199.40"/>
    </edge>
    <edge id=":4.3_0" function="internal">
        <lane id=":4.3_0_0" index="0" disallow="pedestrian tram rail_urban rail rail_electric rail_fast ship" speed="7.04" length="10.86" width="4.50" shape="155.21,231.73,201.17 155.93,230.99,201.17 157.91,230.50,201.18 161.16,230.26,201.18 165.68,230.27,201.20"/>
    </edge>
    <edge id=":40.17.06_0" function="internal">
        <lane id=":40.17.06_0_0" index="0" disallow="pedestrian tram rail_urban rail rail_electric rail_fast ship" speed="13.89" length="3.06" width="4.01" shape="202.10,84.65,199.95 202.23,85.56,199.96 202.52,86.15,199.96 202.81,86.75,199.97 202.94,87.66,199.97"/>
        <lane id=":40.17.06_0_1" index="1" disallow="pedestrian tram rail_urban rail rail_electric rail_fast ship" speed="13.89" length="3.06" width="3.50" shape="199.22,84.61,199.95 199.18,87.61,199.97"/>
        <lane id=":40.17.06_0_2" index="2" disallow="pedestrian tram rail_urban rail rail_electric rail_fast ship" speed="13.89" length="3.06" width="4.01" shape="195.35,84.56,199.95 195.43,87.56,199.97"/>
    </edge>
    <edge id=":40.39_0" function="internal">
        <lane id=":40.39_0_0" index="0" disallow="pedestrian tram rail_urban rail rail_electric rail_fast ship" speed="13.89" length="8.02" width="3.96" shape="199.02,64.47,199.77 199.28,72.47,199.84"/>
        <lane id=":40.39_0_1" index="1" disallow="pedestrian tram rail_urban rail rail_electric rail_fast ship" speed="13.89" length="8.02" width="3.78" shape="195.27,64.45,199.77 195.41,72.48,199.84"/>
    </edge>
    <edge id=":408_0" function="internal">
        <lane id=":408_0_0" index="0" disallow="pedestrian tram rail_urban rail rail_electric rail_fast ship" speed="13.89" length="41.19" width="3.78" shape="39.96,109.60,199.00 38.73,150.77,199.42"/>
    </edge>
    <edge id=":408_1" function="internal">
        <lane id=":408_1_0" index="0" disallow="pedestrian tram rail_urban rail rail_electric rail_fast ship" speed="13.89" length="41.20" width="3.61" shape="31.13,150.54,199.42 32.56,109.37,199.00"/>
    </edge>
    <edge id=":42.10_0" function="internal">
        <lane id=":42.10_0_0" index="0" disallow="pedestrian tram rail_urban rail rail_electric rail_fast ship" speed="13.89" length="3.01" width="2.50" shape="63.03,164.81,200.10 60.08,164.49,199.60"/>
    </edge>
    <edge id=":448_0" function="internal">
        <lane id=":448_0_0" index="0" disallow="pedestrian tram rail_urban rail rail_electric rail_fast ship" speed="11.30" length="29.16" width="4.00" shape="155.39,132.48,200.11 166.46,132.14,200.19 174.41,130.57,200.24 179.22,127.75,200.28 180.91,123.69,200.31"/>
    </edge>
    <edge id=":448_1" function="internal">
        <lane id=":448_1_0" index="0" disallow="pedestrian tram rail_urban rail rail_electric rail_fast ship" speed="11.51" length="30.31" width="3.50" shape="180.26,147.83,200.53 178.82,142.86,200.46 174.18,139.23,200.38 166.34,136.93,200.27 155.31,135.97,200.11"/>
    </edge>
    <edge id=":448_2" function="internal">
        <lane id=":448_2_0" index="0" disallow="pedestrian tram rail_urban rail rail_electric rail_fast ship" speed="13.89" length="24.15" width="4.00" shape="180.26,147.83,200.53 180.91,123.69,200.31"/>
        <lane id=":448_2_1" index="1" disallow="pedestrian tram rail_urban rail rail_electric rail_fast ship" speed="13.89" length="24.15" width="3.50" shape="184.01,147.93,200.53 184.66,123.79,200.31"/>
        <lane id=":448_2_2" index="2" disallow="pedestrian tram rail_urban rail rail_electric rail_fast ship" speed="13.89" length="24.15" width="4.00" shape="187.76,148.04,200.53 188.41,123.89,200.31"/>
    </edge>
    <edge id=":45.17_0" function="internal">
        <lane id=":45.17_0_0" index="0" disallow="pedestrian tram rail_urban rail rail_electric rail_fast ship" speed="13.89" length="3.49" width="3.00" shape="157.00,86.70,199.77 157.30,87.68,199.77 157.43,88.38,199.77 157.46,89.10,199.77 157.46,90.13,199.77"/>
    </edge>
    <edge id=":46.1_0" function="internal">
        <lane id=":46.1_0_0" index="0" disallow="pedestrian tram rail_urban rail rail_electric rail_fast ship" speed="13.89" length="0.10" width="2.75" shape="60.61,85.65,198.82 60.61,85.65,198.82"/>
    </edge>
    <edge id=":477_0" function="internal">
        <lane id=":477_0_0" index="0" disallow="pedestrian tram rail_urban rail rail_electric rail_fast ship" speed="6.60" length="8.04" width="2.50" shape="70.77,167.22,199.69 67.79,167.43,199.68 65.59,167.91,199.67 64.19,168.67,199.67 63.57,169.69,199.66"/>
    </edge>
    <edge id=":477_1" function="internal">
        <lane id=":477_1_0" index="0" disallow="pedestrian tram rail_urban rail rail_electric rail_fast ship" speed="13.89" length="8.30" width="2.50" shape="62.42,164.60,199.59 70.72,164.72,199.69"/>
    </edge>
    <edge id=":48.46_0" function="internal">
        <lane id=":48.46_0_0" index="0" disallow="pedestrian tram rail_urban rail rail_electric rail_fast ship" speed="13.89" length="0.10" width="2.75" shape="78.17,85.73,198.66 78.17,85.73,198.66"/>
    </edge>
    <edge id=":488_0" function="internal">
        <lane id=":488_0_0" index="0" disallow="pedestrian tram rail_urban rail rail_electric rail_fast ship" speed="13.78" length="48.58" width="4.78" shape="100.03,181.78,199.94 111.87,228.89,200.79"/>
    </edge>
    <edge id=":488_1" function="internal">
        <lane id=":488_1_0" index="0" disallow="pedestrian tram rail_urban rail rail_electric rail_fast ship" speed="13.89" length="61.79" width="3.50" shape="96.82,181.30,199.94 92.15,202.35,200.03 85.39,217.29,200.10 76.52,226.14,200.15 65.56,228.89,200.20"/>
    </edge>
    <edge id=":488_2" function="internal">
        <lane id=":488_2_0" index="0" disallow="pedestrian tram rail_urban rail rail_electric rail_fast ship" speed="13.60" length="48.41" width="3.00" shape="65.64,225.39,200.20 74.04,223.06,200.16 79.21,215.59,200.11 81.13,202.96,200.05 79.82,185.18,199.96"/>
    </edge>
    <edge id=":488_3" function="internal">
        <lane id=":488_3_0" index="0" disallow="pedestrian tram rail_urban rail rail_electric rail_fast ship" speed="13.89" length="50.96" width="3.50" shape="65.64,225.39,200.20 75.49,223.07,200.15 81.67,215.51,200.11 84.18,202.73,200.04 83.04,184.71,199.96"/>
    </edge>
    <edge id=":488_4" function="internal">
        <lane id=":488_4_0" index="0" disallow="pedestrian tram rail_urban rail rail_electric rail_fast ship" speed="13.89" length="46.37" width="4.78" shape="65.64,225.39,200.20 111.87,228.89,200.79"/>
    </edge>
    <edge id=":5.4_0" function="internal">
        <lane id=":5.4_0_0" index="0" disallow="pedestrian tram rail_urban rail rail_electric rail_fast ship" speed="6.39" length="6.93" width="4.50" shape="148.55,229.82,201.05 155.21,231.73,201.17"/>
    </edge>
    <edge id=":514_0" function="internal">
        <lane id=":514_0_0" index="0" disallow="pedestrian tram rail_urban rail rail_electric rail_fast ship" speed="10.28" length="24.05" width="3.37" shape="48.44,228.45,199.99 41.68,227.39,199.95 36.90,224.58,199.91 34.12,220.03,199.87 33.32,213.75,199.83"/>
    </edge>
    <edge id=":514_1" function="internal">
        <lane id=":514_1_0" index="0" disallow="pedestrian tram rail_urban rail rail_electric rail_fast ship" speed="9.06" length="18.41" width="3.50" shape="36.81,213.85,199.83 37.43,218.59,199.87 39.59,222.02,199.91 43.29,224.15,199.95 48.53,224.95,199.99"/>
    </edge>
    <edge id=":532_0" function="internal">
        <lane id=":532_0_0" index="0" disallow="pedestrian tram rail_urban rail rail_electric rail_fast ship" speed="13.89" length="12.43" width="3.53" shape="167.05,102.19,199.77 154.62,102.30,199.77"/>
    </edge>