<configuration>
    <input>
        <net-file value="ZalaZONE_SmartCityZone_laser.net.xml"/>
    <!--    <route-files value="hello.rou.xml"/>         -->
    </input>
    <time>
        <begin value="0"/>
        <end value="3600"/>
    </time>
</configuration>
